data_nwchem_pspw

_audit_creation_date   Tue Aug 13 10:26:08 2024
_audit_creation_method    generated by PSPW module of NWChem


_cell_length_a            15.0000
_cell_length_b            15.0000
_cell_length_c            15.0000
_cell_angle_alpha         90.0000
_cell_angle_beta          90.0000
_cell_angle_gamma         90.0000

_symmetry_space_group_name_H-M     P1  

loop_
_atom_site_type_symbol
_atom_site_fract_x
_atom_site_fract_y
_atom_site_fract_z
Li            0.000000      0.000000     -0.021667
H             0.000000      0.000000      0.065000
data_nwchem_pspw

_audit_creation_date   Tue Aug 13 10:27:03 2024
_audit_creation_method    generated by PSPW module of NWChem


_cell_length_a            15.0000
_cell_length_b            15.0000
_cell_length_c            15.0000
_cell_angle_alpha         90.0000
_cell_angle_beta          90.0000
_cell_angle_gamma         90.0000

_symmetry_space_group_name_H-M     P1  

loop_
_atom_site_type_symbol
_atom_site_fract_x
_atom_site_fract_y
_atom_site_fract_z
Li            0.000000      0.000000     -0.021667
H             0.000000      0.000000      0.065000
data_nwchem_pspw

_audit_creation_date   Tue Aug 13 10:28:56 2024
_audit_creation_method    generated by PSPW module of NWChem


_cell_length_a            15.0000
_cell_length_b            15.0000
_cell_length_c            15.0000
_cell_angle_alpha         90.0000
_cell_angle_beta          90.0000
_cell_angle_gamma         90.0000

_symmetry_space_group_name_H-M     P1  

loop_
_atom_site_type_symbol
_atom_site_fract_x
_atom_site_fract_y
_atom_site_fract_z
Li            0.000000      0.000000     -0.021667
H             0.000000      0.000000      0.065000
data_nwchem_pspw

_audit_creation_date   Tue Aug 13 10:32:33 2024
_audit_creation_method    generated by PSPW module of NWChem


_cell_length_a            15.0000
_cell_length_b            15.0000
_cell_length_c            15.0000
_cell_angle_alpha         90.0000
_cell_angle_beta          90.0000
_cell_angle_gamma         90.0000

_symmetry_space_group_name_H-M     P1  

loop_
_atom_site_type_symbol
_atom_site_fract_x
_atom_site_fract_y
_atom_site_fract_z
Li            0.000000      0.000000     -0.021667
H             0.000000      0.000000      0.065000
data_nwchem_pspw

_audit_creation_date   Tue Aug 13 10:32:46 2024
_audit_creation_method    generated by PSPW module of NWChem


_cell_length_a            15.0000
_cell_length_b            15.0000
_cell_length_c            15.0000
_cell_angle_alpha         90.0000
_cell_angle_beta          90.0000
_cell_angle_gamma         90.0000

_symmetry_space_group_name_H-M     P1  

loop_
_atom_site_type_symbol
_atom_site_fract_x
_atom_site_fract_y
_atom_site_fract_z
Li            0.000000      0.000000     -0.021667
H             0.000000      0.000000      0.065000
data_nwchem_pspw

_audit_creation_date   Tue Aug 13 10:32:58 2024
_audit_creation_method    generated by PSPW module of NWChem


_cell_length_a            15.0000
_cell_length_b            15.0000
_cell_length_c            15.0000
_cell_angle_alpha         90.0000
_cell_angle_beta          90.0000
_cell_angle_gamma         90.0000

_symmetry_space_group_name_H-M     P1  

loop_
_atom_site_type_symbol
_atom_site_fract_x
_atom_site_fract_y
_atom_site_fract_z
Li            0.000000      0.000000     -0.021667
H             0.000000      0.000000      0.065000
