data_nwchem_pspw

_audit_creation_date   Fri Jul 26 10:58:23 2024
_audit_creation_method    generated by PSPW module of NWChem


_cell_length_a            15.0000
_cell_length_b            15.0000
_cell_length_c            15.0000
_cell_angle_alpha         90.0000
_cell_angle_beta          90.0000
_cell_angle_gamma         90.0000

_symmetry_space_group_name_H-M     P1  

loop_
_atom_site_type_symbol
_atom_site_fract_x
_atom_site_fract_y
_atom_site_fract_z
Li            0.000000      0.000000     -0.021667
H             0.000000      0.000000      0.065000
data_nwchem_pspw

_audit_creation_date   Fri Jul 26 10:58:59 2024
_audit_creation_method    generated by PSPW module of NWChem


_cell_length_a            15.0000
_cell_length_b            15.0000
_cell_length_c            15.0000
_cell_angle_alpha         90.0000
_cell_angle_beta          90.0000
_cell_angle_gamma         90.0000

_symmetry_space_group_name_H-M     P1  

loop_
_atom_site_type_symbol
_atom_site_fract_x
_atom_site_fract_y
_atom_site_fract_z
Li            0.000000      0.000000     -0.021667
H             0.000000      0.000000      0.065000
data_nwchem_pspw

_audit_creation_date   Fri Jul 26 11:00:35 2024
_audit_creation_method    generated by PSPW module of NWChem


_cell_length_a            15.0000
_cell_length_b            15.0000
_cell_length_c            15.0000
_cell_angle_alpha         90.0000
_cell_angle_beta          90.0000
_cell_angle_gamma         90.0000

_symmetry_space_group_name_H-M     P1  

loop_
_atom_site_type_symbol
_atom_site_fract_x
_atom_site_fract_y
_atom_site_fract_z
Li            0.000000      0.000000     -0.021667
H             0.000000      0.000000      0.065000
data_nwchem_pspw

_audit_creation_date   Fri Jul 26 11:02:57 2024
_audit_creation_method    generated by PSPW module of NWChem


_cell_length_a            15.0000
_cell_length_b            15.0000
_cell_length_c            15.0000
_cell_angle_alpha         90.0000
_cell_angle_beta          90.0000
_cell_angle_gamma         90.0000

_symmetry_space_group_name_H-M     P1  

loop_
_atom_site_type_symbol
_atom_site_fract_x
_atom_site_fract_y
_atom_site_fract_z
Li            0.000000      0.000000     -0.021667
H             0.000000      0.000000      0.065000
data_nwchem_pspw

_audit_creation_date   Fri Jul 26 11:03:10 2024
_audit_creation_method    generated by PSPW module of NWChem


_cell_length_a            15.0000
_cell_length_b            15.0000
_cell_length_c            15.0000
_cell_angle_alpha         90.0000
_cell_angle_beta          90.0000
_cell_angle_gamma         90.0000

_symmetry_space_group_name_H-M     P1  

loop_
_atom_site_type_symbol
_atom_site_fract_x
_atom_site_fract_y
_atom_site_fract_z
Li            0.000000      0.000000     -0.021667
H             0.000000      0.000000      0.065000
data_nwchem_pspw

_audit_creation_date   Fri Jul 26 11:03:22 2024
_audit_creation_method    generated by PSPW module of NWChem


_cell_length_a            15.0000
_cell_length_b            15.0000
_cell_length_c            15.0000
_cell_angle_alpha         90.0000
_cell_angle_beta          90.0000
_cell_angle_gamma         90.0000

_symmetry_space_group_name_H-M     P1  

loop_
_atom_site_type_symbol
_atom_site_fract_x
_atom_site_fract_y
_atom_site_fract_z
Li            0.000000      0.000000     -0.021667
H             0.000000      0.000000      0.065000
