data_nwchem_pspw

_audit_creation_date   Fri Apr  4 15:33:43 2025
_audit_creation_method    generated by PSPW module of NWChem


_cell_length_a             7.9377
_cell_length_b             7.9377
_cell_length_c             7.9377
_cell_angle_alpha         90.0000
_cell_angle_beta          90.0000
_cell_angle_gamma         90.0000

_symmetry_space_group_name_H-M     P1  

loop_
_atom_site_type_symbol
_atom_site_fract_x
_atom_site_fract_y
_atom_site_fract_z
H             0.000000      0.000000     -0.037795
H             0.000000      0.000000      0.037795
data_nwchem_pspw

_audit_creation_date   Fri Apr  4 15:34:15 2025
_audit_creation_method    generated by PSPW module of NWChem


_cell_length_a             7.9377
_cell_length_b             7.9377
_cell_length_c             7.9377
_cell_angle_alpha         90.0000
_cell_angle_beta          90.0000
_cell_angle_gamma         90.0000

_symmetry_space_group_name_H-M     P1  

loop_
_atom_site_type_symbol
_atom_site_fract_x
_atom_site_fract_y
_atom_site_fract_z
H             0.000000      0.000000     -0.037795
H             0.000000      0.000000      0.037795
data_nwchem_pspw

_audit_creation_date   Fri Apr  4 15:34:56 2025
_audit_creation_method    generated by PSPW module of NWChem


_cell_length_a             7.9377
_cell_length_b             7.9377
_cell_length_c             7.9377
_cell_angle_alpha         90.0000
_cell_angle_beta          90.0000
_cell_angle_gamma         90.0000

_symmetry_space_group_name_H-M     P1  

loop_
_atom_site_type_symbol
_atom_site_fract_x
_atom_site_fract_y
_atom_site_fract_z
H             0.000000      0.000000     -0.037795
H             0.000000      0.000000      0.037795
data_nwchem_pspw

_audit_creation_date   Fri Apr  4 15:36:09 2025
_audit_creation_method    generated by PSPW module of NWChem


_cell_length_a             7.9377
_cell_length_b             7.9377
_cell_length_c             7.9377
_cell_angle_alpha         90.0000
_cell_angle_beta          90.0000
_cell_angle_gamma         90.0000

_symmetry_space_group_name_H-M     P1  

loop_
_atom_site_type_symbol
_atom_site_fract_x
_atom_site_fract_y
_atom_site_fract_z
H             0.000000      0.000000     -0.037795
H             0.000000      0.000000      0.037795
data_nwchem_pspw

_audit_creation_date   Fri Apr  4 15:41:18 2025
_audit_creation_method    generated by PSPW module of NWChem


_cell_length_a             7.9377
_cell_length_b             7.9377
_cell_length_c             7.9377
_cell_angle_alpha         90.0000
_cell_angle_beta          90.0000
_cell_angle_gamma         90.0000

_symmetry_space_group_name_H-M     P1  

loop_
_atom_site_type_symbol
_atom_site_fract_x
_atom_site_fract_y
_atom_site_fract_z
H             0.000000      0.000000     -0.037795
H             0.000000      0.000000      0.037795
data_nwchem_pspw

_audit_creation_date   Fri Apr  4 16:04:06 2025
_audit_creation_method    generated by PSPW module of NWChem


_cell_length_a             7.9377
_cell_length_b             7.9377
_cell_length_c             7.9377
_cell_angle_alpha         90.0000
_cell_angle_beta          90.0000
_cell_angle_gamma         90.0000

_symmetry_space_group_name_H-M     P1  

loop_
_atom_site_type_symbol
_atom_site_fract_x
_atom_site_fract_y
_atom_site_fract_z
H             0.000000      0.000000     -0.044094
H             0.000000      0.000000      0.044094
data_nwchem_pspw

_audit_creation_date   Fri Apr  4 16:08:14 2025
_audit_creation_method    generated by PSPW module of NWChem


_cell_length_a             7.9377
_cell_length_b             7.9377
_cell_length_c             7.9377
_cell_angle_alpha         90.0000
_cell_angle_beta          90.0000
_cell_angle_gamma         90.0000

_symmetry_space_group_name_H-M     P1  

loop_
_atom_site_type_symbol
_atom_site_fract_x
_atom_site_fract_y
_atom_site_fract_z
H             0.000000      0.000000     -0.050393
H             0.000000      0.000000      0.050393
data_nwchem_pspw

_audit_creation_date   Fri Apr  4 16:09:42 2025
_audit_creation_method    generated by PSPW module of NWChem


_cell_length_a             7.9377
_cell_length_b             7.9377
_cell_length_c             7.9377
_cell_angle_alpha         90.0000
_cell_angle_beta          90.0000
_cell_angle_gamma         90.0000

_symmetry_space_group_name_H-M     P1  

loop_
_atom_site_type_symbol
_atom_site_fract_x
_atom_site_fract_y
_atom_site_fract_z
H             0.000000      0.000000     -0.056692
H             0.000000      0.000000      0.056692
data_nwchem_pspw

_audit_creation_date   Fri Apr  4 16:13:19 2025
_audit_creation_method    generated by PSPW module of NWChem


_cell_length_a             7.9377
_cell_length_b             7.9377
_cell_length_c             7.9377
_cell_angle_alpha         90.0000
_cell_angle_beta          90.0000
_cell_angle_gamma         90.0000

_symmetry_space_group_name_H-M     P1  

loop_
_atom_site_type_symbol
_atom_site_fract_x
_atom_site_fract_y
_atom_site_fract_z
H             0.000000      0.000000     -0.062991
H             0.000000      0.000000      0.062991
data_nwchem_pspw

_audit_creation_date   Fri Apr  4 16:43:48 2025
_audit_creation_method    generated by PSPW module of NWChem


_cell_length_a             7.9377
_cell_length_b             7.9377
_cell_length_c             7.9377
_cell_angle_alpha         90.0000
_cell_angle_beta          90.0000
_cell_angle_gamma         90.0000

_symmetry_space_group_name_H-M     P1  

loop_
_atom_site_type_symbol
_atom_site_fract_x
_atom_site_fract_y
_atom_site_fract_z
H             0.000000      0.000000     -0.094486
H             0.000000      0.000000      0.094486
data_nwchem_pspw

_audit_creation_date   Sat Apr  5 14:06:29 2025
_audit_creation_method    generated by PSPW module of NWChem


_cell_length_a             7.9377
_cell_length_b             7.9377
_cell_length_c             7.9377
_cell_angle_alpha         90.0000
_cell_angle_beta          90.0000
_cell_angle_gamma         90.0000

_symmetry_space_group_name_H-M     P1  

loop_
_atom_site_type_symbol
_atom_site_fract_x
_atom_site_fract_y
_atom_site_fract_z
H             0.000000      0.000000     -0.125982
H             0.000000      0.000000      0.125982
data_nwchem_pspw

_audit_creation_date   Sat Apr  5 14:15:42 2025
_audit_creation_method    generated by PSPW module of NWChem


_cell_length_a             7.9377
_cell_length_b             7.9377
_cell_length_c             7.9377
_cell_angle_alpha         90.0000
_cell_angle_beta          90.0000
_cell_angle_gamma         90.0000

_symmetry_space_group_name_H-M     P1  

loop_
_atom_site_type_symbol
_atom_site_fract_x
_atom_site_fract_y
_atom_site_fract_z
H             0.000000      0.000000     -0.157477
H             0.000000      0.000000      0.157477
data_nwchem_pspw

_audit_creation_date   Sat Apr  5 14:21:23 2025
_audit_creation_method    generated by PSPW module of NWChem


_cell_length_a             7.9377
_cell_length_b             7.9377
_cell_length_c             7.9377
_cell_angle_alpha         90.0000
_cell_angle_beta          90.0000
_cell_angle_gamma         90.0000

_symmetry_space_group_name_H-M     P1  

loop_
_atom_site_type_symbol
_atom_site_fract_x
_atom_site_fract_y
_atom_site_fract_z
H             0.000000      0.000000     -0.188973
H             0.000000      0.000000      0.188973
data_nwchem_pspw

_audit_creation_date   Sat Apr  5 14:26:37 2025
_audit_creation_method    generated by PSPW module of NWChem


_cell_length_a             7.9377
_cell_length_b             7.9377
_cell_length_c             7.9377
_cell_angle_alpha         90.0000
_cell_angle_beta          90.0000
_cell_angle_gamma         90.0000

_symmetry_space_group_name_H-M     P1  

loop_
_atom_site_type_symbol
_atom_site_fract_x
_atom_site_fract_y
_atom_site_fract_z
H             0.000000      0.000000     -0.220468
H             0.000000      0.000000      0.220468
data_nwchem_pspw

_audit_creation_date   Sat Apr  5 14:30:57 2025
_audit_creation_method    generated by PSPW module of NWChem


_cell_length_a             7.9377
_cell_length_b             7.9377
_cell_length_c             7.9377
_cell_angle_alpha         90.0000
_cell_angle_beta          90.0000
_cell_angle_gamma         90.0000

_symmetry_space_group_name_H-M     P1  

loop_
_atom_site_type_symbol
_atom_site_fract_x
_atom_site_fract_y
_atom_site_fract_z
H             0.000000      0.000000     -0.251963
H             0.000000      0.000000      0.251963
data_nwchem_pspw

_audit_creation_date   Sat Apr  5 14:34:40 2025
_audit_creation_method    generated by PSPW module of NWChem


_cell_length_a             7.9377
_cell_length_b             7.9377
_cell_length_c             7.9377
_cell_angle_alpha         90.0000
_cell_angle_beta          90.0000
_cell_angle_gamma         90.0000

_symmetry_space_group_name_H-M     P1  

loop_
_atom_site_type_symbol
_atom_site_fract_x
_atom_site_fract_y
_atom_site_fract_z
H             0.000000      0.000000     -0.283459
H             0.000000      0.000000      0.283459
data_nwchem_pspw

_audit_creation_date   Sat Apr  5 14:37:58 2025
_audit_creation_method    generated by PSPW module of NWChem


_cell_length_a             7.9377
_cell_length_b             7.9377
_cell_length_c             7.9377
_cell_angle_alpha         90.0000
_cell_angle_beta          90.0000
_cell_angle_gamma         90.0000

_symmetry_space_group_name_H-M     P1  

loop_
_atom_site_type_symbol
_atom_site_fract_x
_atom_site_fract_y
_atom_site_fract_z
H             0.000000      0.000000     -0.314954
H             0.000000      0.000000      0.314954
data_nwchem_pspw

_audit_creation_date   Sat Apr  5 14:40:11 2025
_audit_creation_method    generated by PSPW module of NWChem


_cell_length_a             7.9377
_cell_length_b             7.9377
_cell_length_c             7.9377
_cell_angle_alpha         90.0000
_cell_angle_beta          90.0000
_cell_angle_gamma         90.0000

_symmetry_space_group_name_H-M     P1  

loop_
_atom_site_type_symbol
_atom_site_fract_x
_atom_site_fract_y
_atom_site_fract_z
H             0.000000      0.000000     -0.377945
H             0.000000      0.000000      0.377945
data_nwchem_pspw

_audit_creation_date   Mon Apr  7 09:28:32 2025
_audit_creation_method    generated by PSPW module of NWChem


_cell_length_a             7.9377
_cell_length_b             7.9377
_cell_length_c             7.9377
_cell_angle_alpha         90.0000
_cell_angle_beta          90.0000
_cell_angle_gamma         90.0000

_symmetry_space_group_name_H-M     P1  

loop_
_atom_site_type_symbol
_atom_site_fract_x
_atom_site_fract_y
_atom_site_fract_z
H             0.000000      0.000000     -0.056692
H             0.000000      0.000000      0.056692
data_nwchem_pspw

_audit_creation_date   Tue Apr 22 19:42:17 2025
_audit_creation_method    generated by PSPW module of NWChem


_cell_length_a            10.5835
_cell_length_b            10.5835
_cell_length_c            10.5835
_cell_angle_alpha         90.0000
_cell_angle_beta          90.0000
_cell_angle_gamma         90.0000

_symmetry_space_group_name_H-M     P1  

loop_
_atom_site_type_symbol
_atom_site_fract_x
_atom_site_fract_y
_atom_site_fract_z
H             0.000000      0.000000     -0.283459
H             0.000000      0.000000      0.283459
data_nwchem_pspw

_audit_creation_date   Tue Apr 22 19:42:56 2025
_audit_creation_method    generated by PSPW module of NWChem


_cell_length_a            10.5835
_cell_length_b            10.5835
_cell_length_c            10.5835
_cell_angle_alpha         90.0000
_cell_angle_beta          90.0000
_cell_angle_gamma         90.0000

_symmetry_space_group_name_H-M     P1  

loop_
_atom_site_type_symbol
_atom_site_fract_x
_atom_site_fract_y
_atom_site_fract_z
H             0.000000      0.000000     -0.283459
H             0.000000      0.000000      0.283459
data_nwchem_pspw

_audit_creation_date   Tue Apr 22 19:43:47 2025
_audit_creation_method    generated by PSPW module of NWChem


_cell_length_a            10.5835
_cell_length_b            10.5835
_cell_length_c            10.5835
_cell_angle_alpha         90.0000
_cell_angle_beta          90.0000
_cell_angle_gamma         90.0000

_symmetry_space_group_name_H-M     P1  

loop_
_atom_site_type_symbol
_atom_site_fract_x
_atom_site_fract_y
_atom_site_fract_z
H             0.000000      0.000000     -0.283459
H             0.000000      0.000000      0.283459
data_nwchem_pspw

_audit_creation_date   Tue Apr 22 19:45:16 2025
_audit_creation_method    generated by PSPW module of NWChem


_cell_length_a            10.5835
_cell_length_b            10.5835
_cell_length_c            10.5835
_cell_angle_alpha         90.0000
_cell_angle_beta          90.0000
_cell_angle_gamma         90.0000

_symmetry_space_group_name_H-M     P1  

loop_
_atom_site_type_symbol
_atom_site_fract_x
_atom_site_fract_y
_atom_site_fract_z
H             0.000000      0.000000     -0.283459
H             0.000000      0.000000      0.283459
data_nwchem_pspw

_audit_creation_date   Tue Apr 22 20:42:20 2025
_audit_creation_method    generated by PSPW module of NWChem


_cell_length_a            10.5835
_cell_length_b            10.5835
_cell_length_c            10.5835
_cell_angle_alpha         90.0000
_cell_angle_beta          90.0000
_cell_angle_gamma         90.0000

_symmetry_space_group_name_H-M     P1  

loop_
_atom_site_type_symbol
_atom_site_fract_x
_atom_site_fract_y
_atom_site_fract_z
H             0.000000      0.000000     -0.236216
H             0.000000      0.000000      0.236216
data_nwchem_pspw

_audit_creation_date   Tue Apr 22 20:53:35 2025
_audit_creation_method    generated by PSPW module of NWChem


_cell_length_a            10.5835
_cell_length_b            10.5835
_cell_length_c            10.5835
_cell_angle_alpha         90.0000
_cell_angle_beta          90.0000
_cell_angle_gamma         90.0000

_symmetry_space_group_name_H-M     P1  

loop_
_atom_site_type_symbol
_atom_site_fract_x
_atom_site_fract_y
_atom_site_fract_z
H             0.000000      0.000000     -0.212594
H             0.000000      0.000000      0.212594
data_nwchem_pspw

_audit_creation_date   Tue Apr 22 21:02:46 2025
_audit_creation_method    generated by PSPW module of NWChem


_cell_length_a            10.5835
_cell_length_b            10.5835
_cell_length_c            10.5835
_cell_angle_alpha         90.0000
_cell_angle_beta          90.0000
_cell_angle_gamma         90.0000

_symmetry_space_group_name_H-M     P1  

loop_
_atom_site_type_symbol
_atom_site_fract_x
_atom_site_fract_y
_atom_site_fract_z
H             0.000000      0.000000     -0.188973
H             0.000000      0.000000      0.188973
data_nwchem_pspw

_audit_creation_date   Tue Apr 22 21:14:38 2025
_audit_creation_method    generated by PSPW module of NWChem


_cell_length_a            10.5835
_cell_length_b            10.5835
_cell_length_c            10.5835
_cell_angle_alpha         90.0000
_cell_angle_beta          90.0000
_cell_angle_gamma         90.0000

_symmetry_space_group_name_H-M     P1  

loop_
_atom_site_type_symbol
_atom_site_fract_x
_atom_site_fract_y
_atom_site_fract_z
H             0.000000      0.000000     -0.165351
H             0.000000      0.000000      0.165351
data_nwchem_pspw

_audit_creation_date   Tue Apr 22 21:25:28 2025
_audit_creation_method    generated by PSPW module of NWChem


_cell_length_a            10.5835
_cell_length_b            10.5835
_cell_length_c            10.5835
_cell_angle_alpha         90.0000
_cell_angle_beta          90.0000
_cell_angle_gamma         90.0000

_symmetry_space_group_name_H-M     P1  

loop_
_atom_site_type_symbol
_atom_site_fract_x
_atom_site_fract_y
_atom_site_fract_z
H             0.000000      0.000000     -0.141729
H             0.000000      0.000000      0.141729
