data_nwchem_pspw

_audit_creation_date   Sat Apr  5 15:05:34 2025
_audit_creation_method    generated by PSPW module of NWChem


_cell_length_a             7.9377
_cell_length_b             7.9377
_cell_length_c             7.9377
_cell_angle_alpha         90.0000
_cell_angle_beta          90.0000
_cell_angle_gamma         90.0000

_symmetry_space_group_name_H-M     P1  

loop_
_atom_site_type_symbol
_atom_site_fract_x
_atom_site_fract_y
_atom_site_fract_z
H             0.000000      0.000000     -0.377945
H             0.000000      0.000000      0.377945
data_nwchem_pspw

_audit_creation_date   Sat Apr  5 15:05:56 2025
_audit_creation_method    generated by PSPW module of NWChem


_cell_length_a             7.9377
_cell_length_b             7.9377
_cell_length_c             7.9377
_cell_angle_alpha         90.0000
_cell_angle_beta          90.0000
_cell_angle_gamma         90.0000

_symmetry_space_group_name_H-M     P1  

loop_
_atom_site_type_symbol
_atom_site_fract_x
_atom_site_fract_y
_atom_site_fract_z
H             0.000000      0.000000     -0.377945
H             0.000000      0.000000      0.377945
data_nwchem_pspw

_audit_creation_date   Sat Apr  5 15:06:27 2025
_audit_creation_method    generated by PSPW module of NWChem


_cell_length_a             7.9377
_cell_length_b             7.9377
_cell_length_c             7.9377
_cell_angle_alpha         90.0000
_cell_angle_beta          90.0000
_cell_angle_gamma         90.0000

_symmetry_space_group_name_H-M     P1  

loop_
_atom_site_type_symbol
_atom_site_fract_x
_atom_site_fract_y
_atom_site_fract_z
H             0.000000      0.000000     -0.377945
H             0.000000      0.000000      0.377945
data_nwchem_pspw

_audit_creation_date   Sat Apr  5 15:07:25 2025
_audit_creation_method    generated by PSPW module of NWChem


_cell_length_a             7.9377
_cell_length_b             7.9377
_cell_length_c             7.9377
_cell_angle_alpha         90.0000
_cell_angle_beta          90.0000
_cell_angle_gamma         90.0000

_symmetry_space_group_name_H-M     P1  

loop_
_atom_site_type_symbol
_atom_site_fract_x
_atom_site_fract_y
_atom_site_fract_z
H             0.000000      0.000000     -0.377945
H             0.000000      0.000000      0.377945
data_nwchem_pspw

_audit_creation_date   Sat Apr  5 15:11:50 2025
_audit_creation_method    generated by PSPW module of NWChem


_cell_length_a             7.9377
_cell_length_b             7.9377
_cell_length_c             7.9377
_cell_angle_alpha         90.0000
_cell_angle_beta          90.0000
_cell_angle_gamma         90.0000

_symmetry_space_group_name_H-M     P1  

loop_
_atom_site_type_symbol
_atom_site_fract_x
_atom_site_fract_y
_atom_site_fract_z
H             0.000000      0.000000     -0.314954
H             0.000000      0.000000      0.314954
data_nwchem_pspw

_audit_creation_date   Sat Apr  5 15:17:05 2025
_audit_creation_method    generated by PSPW module of NWChem


_cell_length_a             7.9377
_cell_length_b             7.9377
_cell_length_c             7.9377
_cell_angle_alpha         90.0000
_cell_angle_beta          90.0000
_cell_angle_gamma         90.0000

_symmetry_space_group_name_H-M     P1  

loop_
_atom_site_type_symbol
_atom_site_fract_x
_atom_site_fract_y
_atom_site_fract_z
H             0.000000      0.000000     -0.283459
H             0.000000      0.000000      0.283459
data_nwchem_pspw

_audit_creation_date   Sat Apr  5 15:24:58 2025
_audit_creation_method    generated by PSPW module of NWChem


_cell_length_a             7.9377
_cell_length_b             7.9377
_cell_length_c             7.9377
_cell_angle_alpha         90.0000
_cell_angle_beta          90.0000
_cell_angle_gamma         90.0000

_symmetry_space_group_name_H-M     P1  

loop_
_atom_site_type_symbol
_atom_site_fract_x
_atom_site_fract_y
_atom_site_fract_z
H             0.000000      0.000000     -0.251963
H             0.000000      0.000000      0.251963
data_nwchem_pspw

_audit_creation_date   Sat Apr  5 15:31:50 2025
_audit_creation_method    generated by PSPW module of NWChem


_cell_length_a             7.9377
_cell_length_b             7.9377
_cell_length_c             7.9377
_cell_angle_alpha         90.0000
_cell_angle_beta          90.0000
_cell_angle_gamma         90.0000

_symmetry_space_group_name_H-M     P1  

loop_
_atom_site_type_symbol
_atom_site_fract_x
_atom_site_fract_y
_atom_site_fract_z
H             0.000000      0.000000     -0.220468
H             0.000000      0.000000      0.220468
data_nwchem_pspw

_audit_creation_date   Sat Apr  5 15:36:28 2025
_audit_creation_method    generated by PSPW module of NWChem


_cell_length_a             7.9377
_cell_length_b             7.9377
_cell_length_c             7.9377
_cell_angle_alpha         90.0000
_cell_angle_beta          90.0000
_cell_angle_gamma         90.0000

_symmetry_space_group_name_H-M     P1  

loop_
_atom_site_type_symbol
_atom_site_fract_x
_atom_site_fract_y
_atom_site_fract_z
H             0.000000      0.000000     -0.188973
H             0.000000      0.000000      0.188973
data_nwchem_pspw

_audit_creation_date   Sat Apr  5 15:41:26 2025
_audit_creation_method    generated by PSPW module of NWChem


_cell_length_a             7.9377
_cell_length_b             7.9377
_cell_length_c             7.9377
_cell_angle_alpha         90.0000
_cell_angle_beta          90.0000
_cell_angle_gamma         90.0000

_symmetry_space_group_name_H-M     P1  

loop_
_atom_site_type_symbol
_atom_site_fract_x
_atom_site_fract_y
_atom_site_fract_z
H             0.000000      0.000000     -0.157477
H             0.000000      0.000000      0.157477
data_nwchem_pspw

_audit_creation_date   Sat Apr  5 16:00:18 2025
_audit_creation_method    generated by PSPW module of NWChem


_cell_length_a             7.9377
_cell_length_b             7.9377
_cell_length_c             7.9377
_cell_angle_alpha         90.0000
_cell_angle_beta          90.0000
_cell_angle_gamma         90.0000

_symmetry_space_group_name_H-M     P1  

loop_
_atom_site_type_symbol
_atom_site_fract_x
_atom_site_fract_y
_atom_site_fract_z
H             0.000000      0.000000     -0.125982
H             0.000000      0.000000      0.125982
data_nwchem_pspw

_audit_creation_date   Sat Apr  5 16:13:46 2025
_audit_creation_method    generated by PSPW module of NWChem


_cell_length_a             7.9377
_cell_length_b             7.9377
_cell_length_c             7.9377
_cell_angle_alpha         90.0000
_cell_angle_beta          90.0000
_cell_angle_gamma         90.0000

_symmetry_space_group_name_H-M     P1  

loop_
_atom_site_type_symbol
_atom_site_fract_x
_atom_site_fract_y
_atom_site_fract_z
H             0.000000      0.000000     -0.094486
H             0.000000      0.000000      0.094486
data_nwchem_pspw

_audit_creation_date   Sat Apr  5 16:21:16 2025
_audit_creation_method    generated by PSPW module of NWChem


_cell_length_a             7.9377
_cell_length_b             7.9377
_cell_length_c             7.9377
_cell_angle_alpha         90.0000
_cell_angle_beta          90.0000
_cell_angle_gamma         90.0000

_symmetry_space_group_name_H-M     P1  

loop_
_atom_site_type_symbol
_atom_site_fract_x
_atom_site_fract_y
_atom_site_fract_z
H             0.000000      0.000000     -0.062991
H             0.000000      0.000000      0.062991
data_nwchem_pspw

_audit_creation_date   Sat Apr  5 16:29:32 2025
_audit_creation_method    generated by PSPW module of NWChem


_cell_length_a             7.9377
_cell_length_b             7.9377
_cell_length_c             7.9377
_cell_angle_alpha         90.0000
_cell_angle_beta          90.0000
_cell_angle_gamma         90.0000

_symmetry_space_group_name_H-M     P1  

loop_
_atom_site_type_symbol
_atom_site_fract_x
_atom_site_fract_y
_atom_site_fract_z
H             0.000000      0.000000     -0.056692
H             0.000000      0.000000      0.056692
data_nwchem_pspw

_audit_creation_date   Sat Apr  5 19:27:03 2025
_audit_creation_method    generated by PSPW module of NWChem


_cell_length_a             7.9377
_cell_length_b             7.9377
_cell_length_c             7.9377
_cell_angle_alpha         90.0000
_cell_angle_beta          90.0000
_cell_angle_gamma         90.0000

_symmetry_space_group_name_H-M     P1  

loop_
_atom_site_type_symbol
_atom_site_fract_x
_atom_site_fract_y
_atom_site_fract_z
H             0.000000      0.000000     -0.050393
H             0.000000      0.000000      0.050393
data_nwchem_pspw

_audit_creation_date   Sat Apr  5 19:46:13 2025
_audit_creation_method    generated by PSPW module of NWChem


_cell_length_a             7.9377
_cell_length_b             7.9377
_cell_length_c             7.9377
_cell_angle_alpha         90.0000
_cell_angle_beta          90.0000
_cell_angle_gamma         90.0000

_symmetry_space_group_name_H-M     P1  

loop_
_atom_site_type_symbol
_atom_site_fract_x
_atom_site_fract_y
_atom_site_fract_z
H             0.000000      0.000000     -0.044094
H             0.000000      0.000000      0.044094
data_nwchem_pspw

_audit_creation_date   Sat Apr  5 21:51:08 2025
_audit_creation_method    generated by PSPW module of NWChem


_cell_length_a             7.9377
_cell_length_b             7.9377
_cell_length_c             7.9377
_cell_angle_alpha         90.0000
_cell_angle_beta          90.0000
_cell_angle_gamma         90.0000

_symmetry_space_group_name_H-M     P1  

loop_
_atom_site_type_symbol
_atom_site_fract_x
_atom_site_fract_y
_atom_site_fract_z
H             0.000000      0.000000     -0.037795
H             0.000000      0.000000      0.037795
data_nwchem_pspw

_audit_creation_date   Fri Apr 11 18:26:57 2025
_audit_creation_method    generated by PSPW module of NWChem


_cell_length_a             7.9377
_cell_length_b             7.9377
_cell_length_c             7.9377
_cell_angle_alpha         90.0000
_cell_angle_beta          90.0000
_cell_angle_gamma         90.0000

_symmetry_space_group_name_H-M     P1  

loop_
_atom_site_type_symbol
_atom_site_fract_x
_atom_site_fract_y
_atom_site_fract_z
H             0.000000      0.000000     -0.251963
H             0.000000      0.000000      0.251963
data_nwchem_pspw

_audit_creation_date   Fri Apr 11 18:27:15 2025
_audit_creation_method    generated by PSPW module of NWChem


_cell_length_a             7.9377
_cell_length_b             7.9377
_cell_length_c             7.9377
_cell_angle_alpha         90.0000
_cell_angle_beta          90.0000
_cell_angle_gamma         90.0000

_symmetry_space_group_name_H-M     P1  

loop_
_atom_site_type_symbol
_atom_site_fract_x
_atom_site_fract_y
_atom_site_fract_z
H             0.000000      0.000000     -0.251963
H             0.000000      0.000000      0.251963
data_nwchem_pspw

_audit_creation_date   Fri Apr 11 18:27:42 2025
_audit_creation_method    generated by PSPW module of NWChem


_cell_length_a             7.9377
_cell_length_b             7.9377
_cell_length_c             7.9377
_cell_angle_alpha         90.0000
_cell_angle_beta          90.0000
_cell_angle_gamma         90.0000

_symmetry_space_group_name_H-M     P1  

loop_
_atom_site_type_symbol
_atom_site_fract_x
_atom_site_fract_y
_atom_site_fract_z
H             0.000000      0.000000     -0.251963
H             0.000000      0.000000      0.251963
data_nwchem_pspw

_audit_creation_date   Fri Apr 11 18:28:33 2025
_audit_creation_method    generated by PSPW module of NWChem


_cell_length_a             7.9377
_cell_length_b             7.9377
_cell_length_c             7.9377
_cell_angle_alpha         90.0000
_cell_angle_beta          90.0000
_cell_angle_gamma         90.0000

_symmetry_space_group_name_H-M     P1  

loop_
_atom_site_type_symbol
_atom_site_fract_x
_atom_site_fract_y
_atom_site_fract_z
H             0.000000      0.000000     -0.251963
H             0.000000      0.000000      0.251963
