data_nwchem_pspw

_audit_creation_date   Sun Apr  6 09:19:02 2025
_audit_creation_method    generated by PSPW module of NWChem


_cell_length_a             7.9377
_cell_length_b             7.9377
_cell_length_c             7.9377
_cell_angle_alpha         90.0000
_cell_angle_beta          90.0000
_cell_angle_gamma         90.0000

_symmetry_space_group_name_H-M     P1  

loop_
_atom_site_type_symbol
_atom_site_fract_x
_atom_site_fract_y
_atom_site_fract_z
H             0.000000      0.000000     -0.037795
H             0.000000      0.000000      0.037795
data_nwchem_pspw

_audit_creation_date   Sun Apr  6 09:20:00 2025
_audit_creation_method    generated by PSPW module of NWChem


_cell_length_a             7.9377
_cell_length_b             7.9377
_cell_length_c             7.9377
_cell_angle_alpha         90.0000
_cell_angle_beta          90.0000
_cell_angle_gamma         90.0000

_symmetry_space_group_name_H-M     P1  

loop_
_atom_site_type_symbol
_atom_site_fract_x
_atom_site_fract_y
_atom_site_fract_z
H             0.000000      0.000000     -0.037795
H             0.000000      0.000000      0.037795
data_nwchem_pspw

_audit_creation_date   Sun Apr  6 09:21:16 2025
_audit_creation_method    generated by PSPW module of NWChem


_cell_length_a             7.9377
_cell_length_b             7.9377
_cell_length_c             7.9377
_cell_angle_alpha         90.0000
_cell_angle_beta          90.0000
_cell_angle_gamma         90.0000

_symmetry_space_group_name_H-M     P1  

loop_
_atom_site_type_symbol
_atom_site_fract_x
_atom_site_fract_y
_atom_site_fract_z
H             0.000000      0.000000     -0.037795
H             0.000000      0.000000      0.037795
data_nwchem_pspw

_audit_creation_date   Sun Apr  6 09:23:14 2025
_audit_creation_method    generated by PSPW module of NWChem


_cell_length_a             7.9377
_cell_length_b             7.9377
_cell_length_c             7.9377
_cell_angle_alpha         90.0000
_cell_angle_beta          90.0000
_cell_angle_gamma         90.0000

_symmetry_space_group_name_H-M     P1  

loop_
_atom_site_type_symbol
_atom_site_fract_x
_atom_site_fract_y
_atom_site_fract_z
H             0.000000      0.000000     -0.037795
H             0.000000      0.000000      0.037795
data_nwchem_pspw

_audit_creation_date   Sun Apr  6 09:29:29 2025
_audit_creation_method    generated by PSPW module of NWChem


_cell_length_a             7.9377
_cell_length_b             7.9377
_cell_length_c             7.9377
_cell_angle_alpha         90.0000
_cell_angle_beta          90.0000
_cell_angle_gamma         90.0000

_symmetry_space_group_name_H-M     P1  

loop_
_atom_site_type_symbol
_atom_site_fract_x
_atom_site_fract_y
_atom_site_fract_z
H             0.000000      0.000000     -0.044094
H             0.000000      0.000000      0.044094
data_nwchem_pspw

_audit_creation_date   Sun Apr  6 09:35:31 2025
_audit_creation_method    generated by PSPW module of NWChem


_cell_length_a             7.9377
_cell_length_b             7.9377
_cell_length_c             7.9377
_cell_angle_alpha         90.0000
_cell_angle_beta          90.0000
_cell_angle_gamma         90.0000

_symmetry_space_group_name_H-M     P1  

loop_
_atom_site_type_symbol
_atom_site_fract_x
_atom_site_fract_y
_atom_site_fract_z
H             0.000000      0.000000     -0.050393
H             0.000000      0.000000      0.050393
data_nwchem_pspw

_audit_creation_date   Sun Apr  6 09:40:31 2025
_audit_creation_method    generated by PSPW module of NWChem


_cell_length_a             7.9377
_cell_length_b             7.9377
_cell_length_c             7.9377
_cell_angle_alpha         90.0000
_cell_angle_beta          90.0000
_cell_angle_gamma         90.0000

_symmetry_space_group_name_H-M     P1  

loop_
_atom_site_type_symbol
_atom_site_fract_x
_atom_site_fract_y
_atom_site_fract_z
H             0.000000      0.000000     -0.056692
H             0.000000      0.000000      0.056692
data_nwchem_pspw

_audit_creation_date   Sun Apr  6 09:46:53 2025
_audit_creation_method    generated by PSPW module of NWChem


_cell_length_a             7.9377
_cell_length_b             7.9377
_cell_length_c             7.9377
_cell_angle_alpha         90.0000
_cell_angle_beta          90.0000
_cell_angle_gamma         90.0000

_symmetry_space_group_name_H-M     P1  

loop_
_atom_site_type_symbol
_atom_site_fract_x
_atom_site_fract_y
_atom_site_fract_z
H             0.000000      0.000000     -0.062991
H             0.000000      0.000000      0.062991
data_nwchem_pspw

_audit_creation_date   Sun Apr  6 09:55:41 2025
_audit_creation_method    generated by PSPW module of NWChem


_cell_length_a             7.9377
_cell_length_b             7.9377
_cell_length_c             7.9377
_cell_angle_alpha         90.0000
_cell_angle_beta          90.0000
_cell_angle_gamma         90.0000

_symmetry_space_group_name_H-M     P1  

loop_
_atom_site_type_symbol
_atom_site_fract_x
_atom_site_fract_y
_atom_site_fract_z
H             0.000000      0.000000     -0.094486
H             0.000000      0.000000      0.094486
data_nwchem_pspw

_audit_creation_date   Sun Apr  6 10:04:30 2025
_audit_creation_method    generated by PSPW module of NWChem


_cell_length_a             7.9377
_cell_length_b             7.9377
_cell_length_c             7.9377
_cell_angle_alpha         90.0000
_cell_angle_beta          90.0000
_cell_angle_gamma         90.0000

_symmetry_space_group_name_H-M     P1  

loop_
_atom_site_type_symbol
_atom_site_fract_x
_atom_site_fract_y
_atom_site_fract_z
H             0.000000      0.000000     -0.125982
H             0.000000      0.000000      0.125982
data_nwchem_pspw

_audit_creation_date   Sun Apr  6 10:13:07 2025
_audit_creation_method    generated by PSPW module of NWChem


_cell_length_a             7.9377
_cell_length_b             7.9377
_cell_length_c             7.9377
_cell_angle_alpha         90.0000
_cell_angle_beta          90.0000
_cell_angle_gamma         90.0000

_symmetry_space_group_name_H-M     P1  

loop_
_atom_site_type_symbol
_atom_site_fract_x
_atom_site_fract_y
_atom_site_fract_z
H             0.000000      0.000000     -0.157477
H             0.000000      0.000000      0.157477
data_nwchem_pspw

_audit_creation_date   Sun Apr  6 10:21:56 2025
_audit_creation_method    generated by PSPW module of NWChem


_cell_length_a             7.9377
_cell_length_b             7.9377
_cell_length_c             7.9377
_cell_angle_alpha         90.0000
_cell_angle_beta          90.0000
_cell_angle_gamma         90.0000

_symmetry_space_group_name_H-M     P1  

loop_
_atom_site_type_symbol
_atom_site_fract_x
_atom_site_fract_y
_atom_site_fract_z
H             0.000000      0.000000     -0.188973
H             0.000000      0.000000      0.188973
data_nwchem_pspw

_audit_creation_date   Sun Apr  6 15:19:28 2025
_audit_creation_method    generated by PSPW module of NWChem


_cell_length_a             7.9377
_cell_length_b             7.9377
_cell_length_c             7.9377
_cell_angle_alpha         90.0000
_cell_angle_beta          90.0000
_cell_angle_gamma         90.0000

_symmetry_space_group_name_H-M     P1  

loop_
_atom_site_type_symbol
_atom_site_fract_x
_atom_site_fract_y
_atom_site_fract_z
H             0.000000      0.000000     -0.220468
H             0.000000      0.000000      0.220468
data_nwchem_pspw

_audit_creation_date   Sun Apr  6 15:29:01 2025
_audit_creation_method    generated by PSPW module of NWChem


_cell_length_a             7.9377
_cell_length_b             7.9377
_cell_length_c             7.9377
_cell_angle_alpha         90.0000
_cell_angle_beta          90.0000
_cell_angle_gamma         90.0000

_symmetry_space_group_name_H-M     P1  

loop_
_atom_site_type_symbol
_atom_site_fract_x
_atom_site_fract_y
_atom_site_fract_z
H             0.000000      0.000000     -0.251963
H             0.000000      0.000000      0.251963
data_nwchem_pspw

_audit_creation_date   Sun Apr  6 15:54:58 2025
_audit_creation_method    generated by PSPW module of NWChem


_cell_length_a             7.9377
_cell_length_b             7.9377
_cell_length_c             7.9377
_cell_angle_alpha         90.0000
_cell_angle_beta          90.0000
_cell_angle_gamma         90.0000

_symmetry_space_group_name_H-M     P1  

loop_
_atom_site_type_symbol
_atom_site_fract_x
_atom_site_fract_y
_atom_site_fract_z
H             0.000000      0.000000     -0.283459
H             0.000000      0.000000      0.283459
data_nwchem_pspw

_audit_creation_date   Sun Apr  6 16:22:04 2025
_audit_creation_method    generated by PSPW module of NWChem


_cell_length_a             7.9377
_cell_length_b             7.9377
_cell_length_c             7.9377
_cell_angle_alpha         90.0000
_cell_angle_beta          90.0000
_cell_angle_gamma         90.0000

_symmetry_space_group_name_H-M     P1  

loop_
_atom_site_type_symbol
_atom_site_fract_x
_atom_site_fract_y
_atom_site_fract_z
H             0.000000      0.000000     -0.314954
H             0.000000      0.000000      0.314954
data_nwchem_pspw

_audit_creation_date   Sun Apr  6 16:47:26 2025
_audit_creation_method    generated by PSPW module of NWChem


_cell_length_a             7.9377
_cell_length_b             7.9377
_cell_length_c             7.9377
_cell_angle_alpha         90.0000
_cell_angle_beta          90.0000
_cell_angle_gamma         90.0000

_symmetry_space_group_name_H-M     P1  

loop_
_atom_site_type_symbol
_atom_site_fract_x
_atom_site_fract_y
_atom_site_fract_z
H             0.000000      0.000000     -0.377945
H             0.000000      0.000000      0.377945
