data_nwchem_pspw

_audit_creation_date   Wed Apr  2 15:05:54 2025
_audit_creation_method    generated by PSPW module of NWChem


_cell_length_a             7.9377
_cell_length_b             7.9377
_cell_length_c             7.9377
_cell_angle_alpha         90.0000
_cell_angle_beta          90.0000
_cell_angle_gamma         90.0000

_symmetry_space_group_name_H-M     P1  

loop_
_atom_site_type_symbol
_atom_site_fract_x
_atom_site_fract_y
_atom_site_fract_z
H             0.000000      0.000000     -0.037795
H             0.000000      0.000000      0.037795
data_nwchem_pspw

_audit_creation_date   Wed Apr  2 15:06:25 2025
_audit_creation_method    generated by PSPW module of NWChem


_cell_length_a             7.9377
_cell_length_b             7.9377
_cell_length_c             7.9377
_cell_angle_alpha         90.0000
_cell_angle_beta          90.0000
_cell_angle_gamma         90.0000

_symmetry_space_group_name_H-M     P1  

loop_
_atom_site_type_symbol
_atom_site_fract_x
_atom_site_fract_y
_atom_site_fract_z
H             0.000000      0.000000     -0.037795
H             0.000000      0.000000      0.037795
data_nwchem_pspw

_audit_creation_date   Wed Apr  2 15:07:09 2025
_audit_creation_method    generated by PSPW module of NWChem


_cell_length_a             7.9377
_cell_length_b             7.9377
_cell_length_c             7.9377
_cell_angle_alpha         90.0000
_cell_angle_beta          90.0000
_cell_angle_gamma         90.0000

_symmetry_space_group_name_H-M     P1  

loop_
_atom_site_type_symbol
_atom_site_fract_x
_atom_site_fract_y
_atom_site_fract_z
H             0.000000      0.000000     -0.037795
H             0.000000      0.000000      0.037795
data_nwchem_pspw

_audit_creation_date   Wed Apr  2 15:08:33 2025
_audit_creation_method    generated by PSPW module of NWChem


_cell_length_a             7.9377
_cell_length_b             7.9377
_cell_length_c             7.9377
_cell_angle_alpha         90.0000
_cell_angle_beta          90.0000
_cell_angle_gamma         90.0000

_symmetry_space_group_name_H-M     P1  

loop_
_atom_site_type_symbol
_atom_site_fract_x
_atom_site_fract_y
_atom_site_fract_z
H             0.000000      0.000000     -0.037795
H             0.000000      0.000000      0.037795
data_nwchem_pspw

_audit_creation_date   Wed Apr  2 15:25:31 2025
_audit_creation_method    generated by PSPW module of NWChem


_cell_length_a             7.9377
_cell_length_b             7.9377
_cell_length_c             7.9377
_cell_angle_alpha         90.0000
_cell_angle_beta          90.0000
_cell_angle_gamma         90.0000

_symmetry_space_group_name_H-M     P1  

loop_
_atom_site_type_symbol
_atom_site_fract_x
_atom_site_fract_y
_atom_site_fract_z
H             0.000000      0.000000     -0.044094
H             0.000000      0.000000      0.044094
data_nwchem_pspw

_audit_creation_date   Wed Apr  2 15:33:08 2025
_audit_creation_method    generated by PSPW module of NWChem


_cell_length_a             7.9377
_cell_length_b             7.9377
_cell_length_c             7.9377
_cell_angle_alpha         90.0000
_cell_angle_beta          90.0000
_cell_angle_gamma         90.0000

_symmetry_space_group_name_H-M     P1  

loop_
_atom_site_type_symbol
_atom_site_fract_x
_atom_site_fract_y
_atom_site_fract_z
H             0.000000      0.000000     -0.050393
H             0.000000      0.000000      0.050393
data_nwchem_pspw

_audit_creation_date   Wed Apr  2 15:37:37 2025
_audit_creation_method    generated by PSPW module of NWChem


_cell_length_a             7.9377
_cell_length_b             7.9377
_cell_length_c             7.9377
_cell_angle_alpha         90.0000
_cell_angle_beta          90.0000
_cell_angle_gamma         90.0000

_symmetry_space_group_name_H-M     P1  

loop_
_atom_site_type_symbol
_atom_site_fract_x
_atom_site_fract_y
_atom_site_fract_z
H             0.000000      0.000000     -0.056692
H             0.000000      0.000000      0.056692
data_nwchem_pspw

_audit_creation_date   Wed Apr  2 15:44:28 2025
_audit_creation_method    generated by PSPW module of NWChem


_cell_length_a             7.9377
_cell_length_b             7.9377
_cell_length_c             7.9377
_cell_angle_alpha         90.0000
_cell_angle_beta          90.0000
_cell_angle_gamma         90.0000

_symmetry_space_group_name_H-M     P1  

loop_
_atom_site_type_symbol
_atom_site_fract_x
_atom_site_fract_y
_atom_site_fract_z
H             0.000000      0.000000     -0.062991
H             0.000000      0.000000      0.062991
data_nwchem_pspw

_audit_creation_date   Wed Apr  2 15:54:45 2025
_audit_creation_method    generated by PSPW module of NWChem


_cell_length_a             7.9377
_cell_length_b             7.9377
_cell_length_c             7.9377
_cell_angle_alpha         90.0000
_cell_angle_beta          90.0000
_cell_angle_gamma         90.0000

_symmetry_space_group_name_H-M     P1  

loop_
_atom_site_type_symbol
_atom_site_fract_x
_atom_site_fract_y
_atom_site_fract_z
H             0.000000      0.000000     -0.094486
H             0.000000      0.000000      0.094486
data_nwchem_pspw

_audit_creation_date   Wed Apr  2 16:04:11 2025
_audit_creation_method    generated by PSPW module of NWChem


_cell_length_a             7.9377
_cell_length_b             7.9377
_cell_length_c             7.9377
_cell_angle_alpha         90.0000
_cell_angle_beta          90.0000
_cell_angle_gamma         90.0000

_symmetry_space_group_name_H-M     P1  

loop_
_atom_site_type_symbol
_atom_site_fract_x
_atom_site_fract_y
_atom_site_fract_z
H             0.000000      0.000000     -0.125982
H             0.000000      0.000000      0.125982
data_nwchem_pspw

_audit_creation_date   Wed Apr  2 16:20:00 2025
_audit_creation_method    generated by PSPW module of NWChem


_cell_length_a             7.9377
_cell_length_b             7.9377
_cell_length_c             7.9377
_cell_angle_alpha         90.0000
_cell_angle_beta          90.0000
_cell_angle_gamma         90.0000

_symmetry_space_group_name_H-M     P1  

loop_
_atom_site_type_symbol
_atom_site_fract_x
_atom_site_fract_y
_atom_site_fract_z
H             0.000000      0.000000     -0.157477
H             0.000000      0.000000      0.157477
data_nwchem_pspw

_audit_creation_date   Wed Apr  2 16:31:01 2025
_audit_creation_method    generated by PSPW module of NWChem


_cell_length_a             7.9377
_cell_length_b             7.9377
_cell_length_c             7.9377
_cell_angle_alpha         90.0000
_cell_angle_beta          90.0000
_cell_angle_gamma         90.0000

_symmetry_space_group_name_H-M     P1  

loop_
_atom_site_type_symbol
_atom_site_fract_x
_atom_site_fract_y
_atom_site_fract_z
H             0.000000      0.000000     -0.188973
H             0.000000      0.000000      0.188973
data_nwchem_pspw

_audit_creation_date   Thu Apr  3 12:46:09 2025
_audit_creation_method    generated by PSPW module of NWChem


_cell_length_a             7.9377
_cell_length_b             7.9377
_cell_length_c             7.9377
_cell_angle_alpha         90.0000
_cell_angle_beta          90.0000
_cell_angle_gamma         90.0000

_symmetry_space_group_name_H-M     P1  

loop_
_atom_site_type_symbol
_atom_site_fract_x
_atom_site_fract_y
_atom_site_fract_z
H             0.000000      0.000000     -0.251963
H             0.000000      0.000000      0.251963
data_nwchem_pspw

_audit_creation_date   Thu Apr  3 12:57:01 2025
_audit_creation_method    generated by PSPW module of NWChem


_cell_length_a             7.9377
_cell_length_b             7.9377
_cell_length_c             7.9377
_cell_angle_alpha         90.0000
_cell_angle_beta          90.0000
_cell_angle_gamma         90.0000

_symmetry_space_group_name_H-M     P1  

loop_
_atom_site_type_symbol
_atom_site_fract_x
_atom_site_fract_y
_atom_site_fract_z
H             0.000000      0.000000     -0.314954
H             0.000000      0.000000      0.314954
data_nwchem_pspw

_audit_creation_date   Thu Apr  3 14:10:30 2025
_audit_creation_method    generated by PSPW module of NWChem


_cell_length_a             7.9377
_cell_length_b             7.9377
_cell_length_c             7.9377
_cell_angle_alpha         90.0000
_cell_angle_beta          90.0000
_cell_angle_gamma         90.0000

_symmetry_space_group_name_H-M     P1  

loop_
_atom_site_type_symbol
_atom_site_fract_x
_atom_site_fract_y
_atom_site_fract_z
H             0.000000      0.000000     -0.377945
H             0.000000      0.000000      0.377945
data_nwchem_pspw

_audit_creation_date   Thu Apr  3 14:26:51 2025
_audit_creation_method    generated by PSPW module of NWChem


_cell_length_a             7.9377
_cell_length_b             7.9377
_cell_length_c             7.9377
_cell_angle_alpha         90.0000
_cell_angle_beta          90.0000
_cell_angle_gamma         90.0000

_symmetry_space_group_name_H-M     P1  

loop_
_atom_site_type_symbol
_atom_site_fract_x
_atom_site_fract_y
_atom_site_fract_z
H             0.000000      0.000000     -0.283459
H             0.000000      0.000000      0.283459
data_nwchem_pspw

_audit_creation_date   Fri Apr  4 15:19:51 2025
_audit_creation_method    generated by PSPW module of NWChem


_cell_length_a             7.9377
_cell_length_b             7.9377
_cell_length_c             7.9377
_cell_angle_alpha         90.0000
_cell_angle_beta          90.0000
_cell_angle_gamma         90.0000

_symmetry_space_group_name_H-M     P1  

loop_
_atom_site_type_symbol
_atom_site_fract_x
_atom_site_fract_y
_atom_site_fract_z
H             0.000000      0.000000     -0.037795
H             0.000000      0.000000      0.037795
data_nwchem_pspw

_audit_creation_date   Fri Apr  4 15:20:13 2025
_audit_creation_method    generated by PSPW module of NWChem


_cell_length_a             7.9377
_cell_length_b             7.9377
_cell_length_c             7.9377
_cell_angle_alpha         90.0000
_cell_angle_beta          90.0000
_cell_angle_gamma         90.0000

_symmetry_space_group_name_H-M     P1  

loop_
_atom_site_type_symbol
_atom_site_fract_x
_atom_site_fract_y
_atom_site_fract_z
H             0.000000      0.000000     -0.037795
H             0.000000      0.000000      0.037795
data_nwchem_pspw

_audit_creation_date   Fri Apr  4 15:20:48 2025
_audit_creation_method    generated by PSPW module of NWChem


_cell_length_a             7.9377
_cell_length_b             7.9377
_cell_length_c             7.9377
_cell_angle_alpha         90.0000
_cell_angle_beta          90.0000
_cell_angle_gamma         90.0000

_symmetry_space_group_name_H-M     P1  

loop_
_atom_site_type_symbol
_atom_site_fract_x
_atom_site_fract_y
_atom_site_fract_z
H             0.000000      0.000000     -0.037795
H             0.000000      0.000000      0.037795
data_nwchem_pspw

_audit_creation_date   Sun Apr  6 21:34:21 2025
_audit_creation_method    generated by PSPW module of NWChem


_cell_length_a             7.9377
_cell_length_b             7.9377
_cell_length_c             7.9377
_cell_angle_alpha         90.0000
_cell_angle_beta          90.0000
_cell_angle_gamma         90.0000

_symmetry_space_group_name_H-M     P1  

loop_
_atom_site_type_symbol
_atom_site_fract_x
_atom_site_fract_y
_atom_site_fract_z
H             0.000000      0.000000     -0.220468
H             0.000000      0.000000      0.220468
data_nwchem_pspw

_audit_creation_date   Tue Apr 22 18:13:16 2025
_audit_creation_method    generated by PSPW module of NWChem


_cell_length_a            10.5835
_cell_length_b            10.5835
_cell_length_c            10.5835
_cell_angle_alpha         90.0000
_cell_angle_beta          90.0000
_cell_angle_gamma         90.0000

_symmetry_space_group_name_H-M     P1  

loop_
_atom_site_type_symbol
_atom_site_fract_x
_atom_site_fract_y
_atom_site_fract_z
H             0.000000      0.000000     -0.283459
H             0.000000      0.000000      0.283459
data_nwchem_pspw

_audit_creation_date   Tue Apr 22 18:13:46 2025
_audit_creation_method    generated by PSPW module of NWChem


_cell_length_a            10.5835
_cell_length_b            10.5835
_cell_length_c            10.5835
_cell_angle_alpha         90.0000
_cell_angle_beta          90.0000
_cell_angle_gamma         90.0000

_symmetry_space_group_name_H-M     P1  

loop_
_atom_site_type_symbol
_atom_site_fract_x
_atom_site_fract_y
_atom_site_fract_z
H             0.000000      0.000000     -0.283459
H             0.000000      0.000000      0.283459
data_nwchem_pspw

_audit_creation_date   Tue Apr 22 18:14:21 2025
_audit_creation_method    generated by PSPW module of NWChem


_cell_length_a            10.5835
_cell_length_b            10.5835
_cell_length_c            10.5835
_cell_angle_alpha         90.0000
_cell_angle_beta          90.0000
_cell_angle_gamma         90.0000

_symmetry_space_group_name_H-M     P1  

loop_
_atom_site_type_symbol
_atom_site_fract_x
_atom_site_fract_y
_atom_site_fract_z
H             0.000000      0.000000     -0.283459
H             0.000000      0.000000      0.283459
data_nwchem_pspw

_audit_creation_date   Tue Apr 22 18:15:17 2025
_audit_creation_method    generated by PSPW module of NWChem


_cell_length_a            10.5835
_cell_length_b            10.5835
_cell_length_c            10.5835
_cell_angle_alpha         90.0000
_cell_angle_beta          90.0000
_cell_angle_gamma         90.0000

_symmetry_space_group_name_H-M     P1  

loop_
_atom_site_type_symbol
_atom_site_fract_x
_atom_site_fract_y
_atom_site_fract_z
H             0.000000      0.000000     -0.283459
H             0.000000      0.000000      0.283459
data_nwchem_pspw

_audit_creation_date   Tue Apr 22 18:20:31 2025
_audit_creation_method    generated by PSPW module of NWChem


_cell_length_a            10.5835
_cell_length_b            10.5835
_cell_length_c            10.5835
_cell_angle_alpha         90.0000
_cell_angle_beta          90.0000
_cell_angle_gamma         90.0000

_symmetry_space_group_name_H-M     P1  

loop_
_atom_site_type_symbol
_atom_site_fract_x
_atom_site_fract_y
_atom_site_fract_z
H             0.000000      0.000000     -0.236216
H             0.000000      0.000000      0.236216
data_nwchem_pspw

_audit_creation_date   Tue Apr 22 18:26:31 2025
_audit_creation_method    generated by PSPW module of NWChem


_cell_length_a            10.5835
_cell_length_b            10.5835
_cell_length_c            10.5835
_cell_angle_alpha         90.0000
_cell_angle_beta          90.0000
_cell_angle_gamma         90.0000

_symmetry_space_group_name_H-M     P1  

loop_
_atom_site_type_symbol
_atom_site_fract_x
_atom_site_fract_y
_atom_site_fract_z
H             0.000000      0.000000     -0.212594
H             0.000000      0.000000      0.212594
data_nwchem_pspw

_audit_creation_date   Tue Apr 22 18:32:28 2025
_audit_creation_method    generated by PSPW module of NWChem


_cell_length_a            10.5835
_cell_length_b            10.5835
_cell_length_c            10.5835
_cell_angle_alpha         90.0000
_cell_angle_beta          90.0000
_cell_angle_gamma         90.0000

_symmetry_space_group_name_H-M     P1  

loop_
_atom_site_type_symbol
_atom_site_fract_x
_atom_site_fract_y
_atom_site_fract_z
H             0.000000      0.000000     -0.188973
H             0.000000      0.000000      0.188973
data_nwchem_pspw

_audit_creation_date   Tue Apr 22 18:41:34 2025
_audit_creation_method    generated by PSPW module of NWChem


_cell_length_a            10.5835
_cell_length_b            10.5835
_cell_length_c            10.5835
_cell_angle_alpha         90.0000
_cell_angle_beta          90.0000
_cell_angle_gamma         90.0000

_symmetry_space_group_name_H-M     P1  

loop_
_atom_site_type_symbol
_atom_site_fract_x
_atom_site_fract_y
_atom_site_fract_z
H             0.000000      0.000000     -0.165351
H             0.000000      0.000000      0.165351
data_nwchem_pspw

_audit_creation_date   Tue Apr 22 18:47:09 2025
_audit_creation_method    generated by PSPW module of NWChem


_cell_length_a            10.5835
_cell_length_b            10.5835
_cell_length_c            10.5835
_cell_angle_alpha         90.0000
_cell_angle_beta          90.0000
_cell_angle_gamma         90.0000

_symmetry_space_group_name_H-M     P1  

loop_
_atom_site_type_symbol
_atom_site_fract_x
_atom_site_fract_y
_atom_site_fract_z
H             0.000000      0.000000     -0.141729
H             0.000000      0.000000      0.141729
