data_nwchem_pspw

_audit_creation_date   Tue Mar 25 12:16:55 2025
_audit_creation_method    generated by PSPW module of NWChem


_cell_length_a            15.0000
_cell_length_b            15.0000
_cell_length_c            15.0000
_cell_angle_alpha         90.0000
_cell_angle_beta          90.0000
_cell_angle_gamma         90.0000

_symmetry_space_group_name_H-M     P1  

loop_
_atom_site_type_symbol
_atom_site_fract_x
_atom_site_fract_y
_atom_site_fract_z
Li            0.000000      0.000000     -0.021667
H             0.000000      0.000000      0.065000
data_nwchem_pspw

_audit_creation_date   Tue Mar 25 12:18:33 2025
_audit_creation_method    generated by PSPW module of NWChem


_cell_length_a            15.0000
_cell_length_b            15.0000
_cell_length_c            15.0000
_cell_angle_alpha         90.0000
_cell_angle_beta          90.0000
_cell_angle_gamma         90.0000

_symmetry_space_group_name_H-M     P1  

loop_
_atom_site_type_symbol
_atom_site_fract_x
_atom_site_fract_y
_atom_site_fract_z
Li            0.000000      0.000000     -0.021667
H             0.000000      0.000000      0.065000
data_nwchem_pspw

_audit_creation_date   Tue Mar 25 12:21:50 2025
_audit_creation_method    generated by PSPW module of NWChem


_cell_length_a            15.0000
_cell_length_b            15.0000
_cell_length_c            15.0000
_cell_angle_alpha         90.0000
_cell_angle_beta          90.0000
_cell_angle_gamma         90.0000

_symmetry_space_group_name_H-M     P1  

loop_
_atom_site_type_symbol
_atom_site_fract_x
_atom_site_fract_y
_atom_site_fract_z
Li            0.000000      0.000000     -0.021667
H             0.000000      0.000000      0.065000
data_nwchem_pspw

_audit_creation_date   Tue Mar 25 12:28:14 2025
_audit_creation_method    generated by PSPW module of NWChem


_cell_length_a            15.0000
_cell_length_b            15.0000
_cell_length_c            15.0000
_cell_angle_alpha         90.0000
_cell_angle_beta          90.0000
_cell_angle_gamma         90.0000

_symmetry_space_group_name_H-M     P1  

loop_
_atom_site_type_symbol
_atom_site_fract_x
_atom_site_fract_y
_atom_site_fract_z
Li            0.000000      0.000000     -0.021667
H             0.000000      0.000000      0.065000
data_nwchem_pspw

_audit_creation_date   Tue Mar 25 12:51:38 2025
_audit_creation_method    generated by PSPW module of NWChem


_cell_length_a            15.0000
_cell_length_b            15.0000
_cell_length_c            15.0000
_cell_angle_alpha         90.0000
_cell_angle_beta          90.0000
_cell_angle_gamma         90.0000

_symmetry_space_group_name_H-M     P1  

loop_
_atom_site_type_symbol
_atom_site_fract_x
_atom_site_fract_y
_atom_site_fract_z
Li            0.000000      0.000000     -0.021667
H             0.000000      0.000000      0.065000
data_nwchem_pspw

_audit_creation_date   Tue Mar 25 12:52:44 2025
_audit_creation_method    generated by PSPW module of NWChem


_cell_length_a            15.0000
_cell_length_b            15.0000
_cell_length_c            15.0000
_cell_angle_alpha         90.0000
_cell_angle_beta          90.0000
_cell_angle_gamma         90.0000

_symmetry_space_group_name_H-M     P1  

loop_
_atom_site_type_symbol
_atom_site_fract_x
_atom_site_fract_y
_atom_site_fract_z
Li            0.000000      0.000000     -0.021667
H             0.000000      0.000000      0.065000
data_nwchem_pspw

_audit_creation_date   Tue Mar 25 12:55:28 2025
_audit_creation_method    generated by PSPW module of NWChem


_cell_length_a            15.0000
_cell_length_b            15.0000
_cell_length_c            15.0000
_cell_angle_alpha         90.0000
_cell_angle_beta          90.0000
_cell_angle_gamma         90.0000

_symmetry_space_group_name_H-M     P1  

loop_
_atom_site_type_symbol
_atom_site_fract_x
_atom_site_fract_y
_atom_site_fract_z
Li            0.000000      0.000000     -0.021667
H             0.000000      0.000000      0.065000
data_nwchem_pspw

_audit_creation_date   Tue Mar 25 12:59:43 2025
_audit_creation_method    generated by PSPW module of NWChem


_cell_length_a            15.0000
_cell_length_b            15.0000
_cell_length_c            15.0000
_cell_angle_alpha         90.0000
_cell_angle_beta          90.0000
_cell_angle_gamma         90.0000

_symmetry_space_group_name_H-M     P1  

loop_
_atom_site_type_symbol
_atom_site_fract_x
_atom_site_fract_y
_atom_site_fract_z
Li            0.000000      0.000000     -0.021667
H             0.000000      0.000000      0.065000
data_nwchem_pspw

_audit_creation_date   Tue Mar 25 13:03:34 2025
_audit_creation_method    generated by PSPW module of NWChem


_cell_length_a            15.0000
_cell_length_b            15.0000
_cell_length_c            15.0000
_cell_angle_alpha         90.0000
_cell_angle_beta          90.0000
_cell_angle_gamma         90.0000

_symmetry_space_group_name_H-M     P1  

loop_
_atom_site_type_symbol
_atom_site_fract_x
_atom_site_fract_y
_atom_site_fract_z
Li            0.000000      0.000000     -0.021667
H             0.000000      0.000000      0.065000
data_nwchem_pspw

_audit_creation_date   Tue Mar 25 13:04:58 2025
_audit_creation_method    generated by PSPW module of NWChem


_cell_length_a            15.0000
_cell_length_b            15.0000
_cell_length_c            15.0000
_cell_angle_alpha         90.0000
_cell_angle_beta          90.0000
_cell_angle_gamma         90.0000

_symmetry_space_group_name_H-M     P1  

loop_
_atom_site_type_symbol
_atom_site_fract_x
_atom_site_fract_y
_atom_site_fract_z
Li            0.000000      0.000000     -0.021667
H             0.000000      0.000000      0.065000
data_nwchem_pspw

_audit_creation_date   Tue Mar 25 13:08:03 2025
_audit_creation_method    generated by PSPW module of NWChem


_cell_length_a            15.0000
_cell_length_b            15.0000
_cell_length_c            15.0000
_cell_angle_alpha         90.0000
_cell_angle_beta          90.0000
_cell_angle_gamma         90.0000

_symmetry_space_group_name_H-M     P1  

loop_
_atom_site_type_symbol
_atom_site_fract_x
_atom_site_fract_y
_atom_site_fract_z
Li            0.000000      0.000000     -0.021667
H             0.000000      0.000000      0.065000
data_nwchem_pspw

_audit_creation_date   Tue Mar 25 13:12:30 2025
_audit_creation_method    generated by PSPW module of NWChem


_cell_length_a            15.0000
_cell_length_b            15.0000
_cell_length_c            15.0000
_cell_angle_alpha         90.0000
_cell_angle_beta          90.0000
_cell_angle_gamma         90.0000

_symmetry_space_group_name_H-M     P1  

loop_
_atom_site_type_symbol
_atom_site_fract_x
_atom_site_fract_y
_atom_site_fract_z
Li            0.000000      0.000000     -0.021667
H             0.000000      0.000000      0.065000
data_nwchem_pspw

_audit_creation_date   Tue Mar 25 13:12:39 2025
_audit_creation_method    generated by PSPW module of NWChem


_cell_length_a            15.0000
_cell_length_b            15.0000
_cell_length_c            15.0000
_cell_angle_alpha         90.0000
_cell_angle_beta          90.0000
_cell_angle_gamma         90.0000

_symmetry_space_group_name_H-M     P1  

loop_
_atom_site_type_symbol
_atom_site_fract_x
_atom_site_fract_y
_atom_site_fract_z
Li            0.000000      0.000000     -0.021667
H             0.000000      0.000000      0.065000
data_nwchem_pspw

_audit_creation_date   Tue Mar 25 13:12:50 2025
_audit_creation_method    generated by PSPW module of NWChem


_cell_length_a            15.0000
_cell_length_b            15.0000
_cell_length_c            15.0000
_cell_angle_alpha         90.0000
_cell_angle_beta          90.0000
_cell_angle_gamma         90.0000

_symmetry_space_group_name_H-M     P1  

loop_
_atom_site_type_symbol
_atom_site_fract_x
_atom_site_fract_y
_atom_site_fract_z
Li            0.000000      0.000000     -0.021667
H             0.000000      0.000000      0.065000
data_nwchem_pspw

_audit_creation_date   Tue Mar 25 13:13:00 2025
_audit_creation_method    generated by PSPW module of NWChem


_cell_length_a            15.0000
_cell_length_b            15.0000
_cell_length_c            15.0000
_cell_angle_alpha         90.0000
_cell_angle_beta          90.0000
_cell_angle_gamma         90.0000

_symmetry_space_group_name_H-M     P1  

loop_
_atom_site_type_symbol
_atom_site_fract_x
_atom_site_fract_y
_atom_site_fract_z
Li            0.000000      0.000000     -0.021667
H             0.000000      0.000000      0.065000
data_nwchem_pspw

_audit_creation_date   Tue Mar 25 13:40:26 2025
_audit_creation_method    generated by PSPW module of NWChem


_cell_length_a            15.0000
_cell_length_b            15.0000
_cell_length_c            15.0000
_cell_angle_alpha         90.0000
_cell_angle_beta          90.0000
_cell_angle_gamma         90.0000

_symmetry_space_group_name_H-M     P1  

loop_
_atom_site_type_symbol
_atom_site_fract_x
_atom_site_fract_y
_atom_site_fract_z
Li            0.000000      0.000000     -0.021667
H             0.000000      0.000000      0.065000
data_nwchem_pspw

_audit_creation_date   Tue Mar 25 13:40:38 2025
_audit_creation_method    generated by PSPW module of NWChem


_cell_length_a            15.0000
_cell_length_b            15.0000
_cell_length_c            15.0000
_cell_angle_alpha         90.0000
_cell_angle_beta          90.0000
_cell_angle_gamma         90.0000

_symmetry_space_group_name_H-M     P1  

loop_
_atom_site_type_symbol
_atom_site_fract_x
_atom_site_fract_y
_atom_site_fract_z
Li            0.000000      0.000000     -0.021667
H             0.000000      0.000000      0.065000
data_nwchem_pspw

_audit_creation_date   Tue Mar 25 13:40:49 2025
_audit_creation_method    generated by PSPW module of NWChem


_cell_length_a            15.0000
_cell_length_b            15.0000
_cell_length_c            15.0000
_cell_angle_alpha         90.0000
_cell_angle_beta          90.0000
_cell_angle_gamma         90.0000

_symmetry_space_group_name_H-M     P1  

loop_
_atom_site_type_symbol
_atom_site_fract_x
_atom_site_fract_y
_atom_site_fract_z
Li            0.000000      0.000000     -0.021667
H             0.000000      0.000000      0.065000
data_nwchem_pspw

_audit_creation_date   Tue Mar 25 13:44:29 2025
_audit_creation_method    generated by PSPW module of NWChem


_cell_length_a            15.0000
_cell_length_b            15.0000
_cell_length_c            15.0000
_cell_angle_alpha         90.0000
_cell_angle_beta          90.0000
_cell_angle_gamma         90.0000

_symmetry_space_group_name_H-M     P1  

loop_
_atom_site_type_symbol
_atom_site_fract_x
_atom_site_fract_y
_atom_site_fract_z
Li            0.000000      0.000000     -0.021667
H             0.000000      0.000000      0.065000
data_nwchem_pspw

_audit_creation_date   Tue Mar 25 13:45:47 2025
_audit_creation_method    generated by PSPW module of NWChem


_cell_length_a            15.0000
_cell_length_b            15.0000
_cell_length_c            15.0000
_cell_angle_alpha         90.0000
_cell_angle_beta          90.0000
_cell_angle_gamma         90.0000

_symmetry_space_group_name_H-M     P1  

loop_
_atom_site_type_symbol
_atom_site_fract_x
_atom_site_fract_y
_atom_site_fract_z
Li            0.000000      0.000000     -0.021667
H             0.000000      0.000000      0.065000
data_nwchem_pspw

_audit_creation_date   Tue Mar 25 13:49:00 2025
_audit_creation_method    generated by PSPW module of NWChem


_cell_length_a            15.0000
_cell_length_b            15.0000
_cell_length_c            15.0000
_cell_angle_alpha         90.0000
_cell_angle_beta          90.0000
_cell_angle_gamma         90.0000

_symmetry_space_group_name_H-M     P1  

loop_
_atom_site_type_symbol
_atom_site_fract_x
_atom_site_fract_y
_atom_site_fract_z
Li            0.000000      0.000000     -0.021667
H             0.000000      0.000000      0.065000
data_nwchem_pspw

_audit_creation_date   Tue Mar 25 13:54:36 2025
_audit_creation_method    generated by PSPW module of NWChem


_cell_length_a            15.0000
_cell_length_b            15.0000
_cell_length_c            15.0000
_cell_angle_alpha         90.0000
_cell_angle_beta          90.0000
_cell_angle_gamma         90.0000

_symmetry_space_group_name_H-M     P1  

loop_
_atom_site_type_symbol
_atom_site_fract_x
_atom_site_fract_y
_atom_site_fract_z
Li            0.000000      0.000000     -0.021667
H             0.000000      0.000000      0.065000
data_nwchem_pspw

_audit_creation_date   Tue Mar 25 13:54:47 2025
_audit_creation_method    generated by PSPW module of NWChem


_cell_length_a            15.0000
_cell_length_b            15.0000
_cell_length_c            15.0000
_cell_angle_alpha         90.0000
_cell_angle_beta          90.0000
_cell_angle_gamma         90.0000

_symmetry_space_group_name_H-M     P1  

loop_
_atom_site_type_symbol
_atom_site_fract_x
_atom_site_fract_y
_atom_site_fract_z
Li            0.000000      0.000000     -0.021667
H             0.000000      0.000000      0.065000
data_nwchem_pspw

_audit_creation_date   Tue Mar 25 13:54:57 2025
_audit_creation_method    generated by PSPW module of NWChem


_cell_length_a            15.0000
_cell_length_b            15.0000
_cell_length_c            15.0000
_cell_angle_alpha         90.0000
_cell_angle_beta          90.0000
_cell_angle_gamma         90.0000

_symmetry_space_group_name_H-M     P1  

loop_
_atom_site_type_symbol
_atom_site_fract_x
_atom_site_fract_y
_atom_site_fract_z
Li            0.000000      0.000000     -0.021667
H             0.000000      0.000000      0.065000
data_nwchem_pspw

_audit_creation_date   Tue Mar 25 14:21:09 2025
_audit_creation_method    generated by PSPW module of NWChem


_cell_length_a            15.0000
_cell_length_b            15.0000
_cell_length_c            15.0000
_cell_angle_alpha         90.0000
_cell_angle_beta          90.0000
_cell_angle_gamma         90.0000

_symmetry_space_group_name_H-M     P1  

loop_
_atom_site_type_symbol
_atom_site_fract_x
_atom_site_fract_y
_atom_site_fract_z
Li            0.000000      0.000000     -0.021667
H             0.000000      0.000000      0.065000
data_nwchem_pspw

_audit_creation_date   Tue Mar 25 14:23:10 2025
_audit_creation_method    generated by PSPW module of NWChem


_cell_length_a            15.0000
_cell_length_b            15.0000
_cell_length_c            15.0000
_cell_angle_alpha         90.0000
_cell_angle_beta          90.0000
_cell_angle_gamma         90.0000

_symmetry_space_group_name_H-M     P1  

loop_
_atom_site_type_symbol
_atom_site_fract_x
_atom_site_fract_y
_atom_site_fract_z
Li            0.000000      0.000000     -0.021667
H             0.000000      0.000000      0.065000
data_nwchem_pspw

_audit_creation_date   Tue Mar 25 14:27:06 2025
_audit_creation_method    generated by PSPW module of NWChem


_cell_length_a            15.0000
_cell_length_b            15.0000
_cell_length_c            15.0000
_cell_angle_alpha         90.0000
_cell_angle_beta          90.0000
_cell_angle_gamma         90.0000

_symmetry_space_group_name_H-M     P1  

loop_
_atom_site_type_symbol
_atom_site_fract_x
_atom_site_fract_y
_atom_site_fract_z
Li            0.000000      0.000000     -0.021667
H             0.000000      0.000000      0.065000
data_nwchem_pspw

_audit_creation_date   Tue Mar 25 14:33:32 2025
_audit_creation_method    generated by PSPW module of NWChem


_cell_length_a            15.0000
_cell_length_b            15.0000
_cell_length_c            15.0000
_cell_angle_alpha         90.0000
_cell_angle_beta          90.0000
_cell_angle_gamma         90.0000

_symmetry_space_group_name_H-M     P1  

loop_
_atom_site_type_symbol
_atom_site_fract_x
_atom_site_fract_y
_atom_site_fract_z
Li            0.000000      0.000000     -0.021667
H             0.000000      0.000000      0.065000
data_nwchem_pspw

_audit_creation_date   Tue Mar 25 14:33:44 2025
_audit_creation_method    generated by PSPW module of NWChem


_cell_length_a            15.0000
_cell_length_b            15.0000
_cell_length_c            15.0000
_cell_angle_alpha         90.0000
_cell_angle_beta          90.0000
_cell_angle_gamma         90.0000

_symmetry_space_group_name_H-M     P1  

loop_
_atom_site_type_symbol
_atom_site_fract_x
_atom_site_fract_y
_atom_site_fract_z
Li            0.000000      0.000000     -0.021667
H             0.000000      0.000000      0.065000
data_nwchem_pspw

_audit_creation_date   Tue Mar 25 14:33:55 2025
_audit_creation_method    generated by PSPW module of NWChem


_cell_length_a            15.0000
_cell_length_b            15.0000
_cell_length_c            15.0000
_cell_angle_alpha         90.0000
_cell_angle_beta          90.0000
_cell_angle_gamma         90.0000

_symmetry_space_group_name_H-M     P1  

loop_
_atom_site_type_symbol
_atom_site_fract_x
_atom_site_fract_y
_atom_site_fract_z
Li            0.000000      0.000000     -0.021667
H             0.000000      0.000000      0.065000
data_nwchem_pspw

_audit_creation_date   Tue Mar 25 15:43:45 2025
_audit_creation_method    generated by PSPW module of NWChem


_cell_length_a            15.0000
_cell_length_b            15.0000
_cell_length_c            15.0000
_cell_angle_alpha         90.0000
_cell_angle_beta          90.0000
_cell_angle_gamma         90.0000

_symmetry_space_group_name_H-M     P1  

loop_
_atom_site_type_symbol
_atom_site_fract_x
_atom_site_fract_y
_atom_site_fract_z
Li            0.000000      0.000000     -0.021667
H             0.000000      0.000000      0.065000
data_nwchem_pspw

_audit_creation_date   Tue Mar 25 16:22:39 2025
_audit_creation_method    generated by PSPW module of NWChem


_cell_length_a            15.0000
_cell_length_b            15.0000
_cell_length_c            15.0000
_cell_angle_alpha         90.0000
_cell_angle_beta          90.0000
_cell_angle_gamma         90.0000

_symmetry_space_group_name_H-M     P1  

loop_
_atom_site_type_symbol
_atom_site_fract_x
_atom_site_fract_y
_atom_site_fract_z
Li            0.000000      0.000000     -0.021667
H             0.000000      0.000000      0.065000
data_nwchem_pspw

_audit_creation_date   Tue Mar 25 16:31:54 2025
_audit_creation_method    generated by PSPW module of NWChem


_cell_length_a            15.0000
_cell_length_b            15.0000
_cell_length_c            15.0000
_cell_angle_alpha         90.0000
_cell_angle_beta          90.0000
_cell_angle_gamma         90.0000

_symmetry_space_group_name_H-M     P1  

loop_
_atom_site_type_symbol
_atom_site_fract_x
_atom_site_fract_y
_atom_site_fract_z
Li            0.000000      0.000000     -0.021667
H             0.000000      0.000000      0.065000
data_nwchem_pspw

_audit_creation_date   Tue Mar 25 16:42:50 2025
_audit_creation_method    generated by PSPW module of NWChem


_cell_length_a            15.0000
_cell_length_b            15.0000
_cell_length_c            15.0000
_cell_angle_alpha         90.0000
_cell_angle_beta          90.0000
_cell_angle_gamma         90.0000

_symmetry_space_group_name_H-M     P1  

loop_
_atom_site_type_symbol
_atom_site_fract_x
_atom_site_fract_y
_atom_site_fract_z
Li            0.000000      0.000000     -0.021667
H             0.000000      0.000000      0.065000
data_nwchem_pspw

_audit_creation_date   Tue Mar 25 17:07:49 2025
_audit_creation_method    generated by PSPW module of NWChem


_cell_length_a            15.0000
_cell_length_b            15.0000
_cell_length_c            15.0000
_cell_angle_alpha         90.0000
_cell_angle_beta          90.0000
_cell_angle_gamma         90.0000

_symmetry_space_group_name_H-M     P1  

loop_
_atom_site_type_symbol
_atom_site_fract_x
_atom_site_fract_y
_atom_site_fract_z
Li            0.000000      0.000000     -0.021667
H             0.000000      0.000000      0.065000
data_nwchem_pspw

_audit_creation_date   Tue Mar 25 19:29:48 2025
_audit_creation_method    generated by PSPW module of NWChem


_cell_length_a            15.0000
_cell_length_b            15.0000
_cell_length_c            15.0000
_cell_angle_alpha         90.0000
_cell_angle_beta          90.0000
_cell_angle_gamma         90.0000

_symmetry_space_group_name_H-M     P1  

loop_
_atom_site_type_symbol
_atom_site_fract_x
_atom_site_fract_y
_atom_site_fract_z
Li            0.000000      0.000000     -0.021667
H             0.000000      0.000000      0.065000
data_nwchem_pspw

_audit_creation_date   Tue Mar 25 19:44:14 2025
_audit_creation_method    generated by PSPW module of NWChem


_cell_length_a            15.0000
_cell_length_b            15.0000
_cell_length_c            15.0000
_cell_angle_alpha         90.0000
_cell_angle_beta          90.0000
_cell_angle_gamma         90.0000

_symmetry_space_group_name_H-M     P1  

loop_
_atom_site_type_symbol
_atom_site_fract_x
_atom_site_fract_y
_atom_site_fract_z
Li            0.000000      0.000000     -0.021667
H             0.000000      0.000000      0.065000
data_nwchem_pspw

_audit_creation_date   Tue Mar 25 19:56:37 2025
_audit_creation_method    generated by PSPW module of NWChem


_cell_length_a            15.0000
_cell_length_b            15.0000
_cell_length_c            15.0000
_cell_angle_alpha         90.0000
_cell_angle_beta          90.0000
_cell_angle_gamma         90.0000

_symmetry_space_group_name_H-M     P1  

loop_
_atom_site_type_symbol
_atom_site_fract_x
_atom_site_fract_y
_atom_site_fract_z
Li            0.000000      0.000000     -0.021667
H             0.000000      0.000000      0.065000
data_nwchem_pspw

_audit_creation_date   Tue Mar 25 20:30:59 2025
_audit_creation_method    generated by PSPW module of NWChem


_cell_length_a            15.0000
_cell_length_b            15.0000
_cell_length_c            15.0000
_cell_angle_alpha         90.0000
_cell_angle_beta          90.0000
_cell_angle_gamma         90.0000

_symmetry_space_group_name_H-M     P1  

loop_
_atom_site_type_symbol
_atom_site_fract_x
_atom_site_fract_y
_atom_site_fract_z
Li            0.000000      0.000000     -0.021667
H             0.000000      0.000000      0.065000
data_nwchem_pspw

_audit_creation_date   Tue Mar 25 20:52:23 2025
_audit_creation_method    generated by PSPW module of NWChem


_cell_length_a            15.0000
_cell_length_b            15.0000
_cell_length_c            15.0000
_cell_angle_alpha         90.0000
_cell_angle_beta          90.0000
_cell_angle_gamma         90.0000

_symmetry_space_group_name_H-M     P1  

loop_
_atom_site_type_symbol
_atom_site_fract_x
_atom_site_fract_y
_atom_site_fract_z
Li            0.000000      0.000000     -0.021667
H             0.000000      0.000000      0.065000
data_nwchem_pspw

_audit_creation_date   Tue Mar 25 20:57:06 2025
_audit_creation_method    generated by PSPW module of NWChem


_cell_length_a            15.0000
_cell_length_b            15.0000
_cell_length_c            15.0000
_cell_angle_alpha         90.0000
_cell_angle_beta          90.0000
_cell_angle_gamma         90.0000

_symmetry_space_group_name_H-M     P1  

loop_
_atom_site_type_symbol
_atom_site_fract_x
_atom_site_fract_y
_atom_site_fract_z
Li            0.000000      0.000000     -0.021667
H             0.000000      0.000000      0.065000
