data_nwchem_pspw

_audit_creation_date   Sat May  3 22:41:45 2025
_audit_creation_method    generated by PSPW module of NWChem


_cell_length_a            15.0000
_cell_length_b            15.0000
_cell_length_c            15.0000
_cell_angle_alpha         90.0000
_cell_angle_beta          90.0000
_cell_angle_gamma         90.0000

_symmetry_space_group_name_H-M     P1  

loop_
_atom_site_type_symbol
_atom_site_fract_x
_atom_site_fract_y
_atom_site_fract_z
Li            0.000000      0.000000     -0.021667
H             0.000000      0.000000      0.065000
data_nwchem_pspw

_audit_creation_date   Sat May  3 22:42:37 2025
_audit_creation_method    generated by PSPW module of NWChem


_cell_length_a            15.0000
_cell_length_b            15.0000
_cell_length_c            15.0000
_cell_angle_alpha         90.0000
_cell_angle_beta          90.0000
_cell_angle_gamma         90.0000

_symmetry_space_group_name_H-M     P1  

loop_
_atom_site_type_symbol
_atom_site_fract_x
_atom_site_fract_y
_atom_site_fract_z
Li            0.000000      0.000000     -0.021667
H             0.000000      0.000000      0.065000
data_nwchem_pspw

_audit_creation_date   Sat May  3 22:43:54 2025
_audit_creation_method    generated by PSPW module of NWChem


_cell_length_a            15.0000
_cell_length_b            15.0000
_cell_length_c            15.0000
_cell_angle_alpha         90.0000
_cell_angle_beta          90.0000
_cell_angle_gamma         90.0000

_symmetry_space_group_name_H-M     P1  

loop_
_atom_site_type_symbol
_atom_site_fract_x
_atom_site_fract_y
_atom_site_fract_z
Li            0.000000      0.000000     -0.021667
H             0.000000      0.000000      0.065000
data_nwchem_pspw

_audit_creation_date   Sat May  3 22:47:29 2025
_audit_creation_method    generated by PSPW module of NWChem


_cell_length_a            15.0000
_cell_length_b            15.0000
_cell_length_c            15.0000
_cell_angle_alpha         90.0000
_cell_angle_beta          90.0000
_cell_angle_gamma         90.0000

_symmetry_space_group_name_H-M     P1  

loop_
_atom_site_type_symbol
_atom_site_fract_x
_atom_site_fract_y
_atom_site_fract_z
Li            0.000000      0.000000     -0.021667
H             0.000000      0.000000      0.065000
data_nwchem_pspw

_audit_creation_date   Sat May  3 22:53:15 2025
_audit_creation_method    generated by PSPW module of NWChem


_cell_length_a            15.0000
_cell_length_b            15.0000
_cell_length_c            15.0000
_cell_angle_alpha         90.0000
_cell_angle_beta          90.0000
_cell_angle_gamma         90.0000

_symmetry_space_group_name_H-M     P1  

loop_
_atom_site_type_symbol
_atom_site_fract_x
_atom_site_fract_y
_atom_site_fract_z
Li            0.000000      0.000000     -0.023333
H             0.000000      0.000000      0.070000
data_nwchem_pspw

_audit_creation_date   Sat May  3 22:58:55 2025
_audit_creation_method    generated by PSPW module of NWChem


_cell_length_a            15.0000
_cell_length_b            15.0000
_cell_length_c            15.0000
_cell_angle_alpha         90.0000
_cell_angle_beta          90.0000
_cell_angle_gamma         90.0000

_symmetry_space_group_name_H-M     P1  

loop_
_atom_site_type_symbol
_atom_site_fract_x
_atom_site_fract_y
_atom_site_fract_z
Li            0.000000      0.000000     -0.025000
H             0.000000      0.000000      0.075000
data_nwchem_pspw

_audit_creation_date   Sat May  3 23:05:01 2025
_audit_creation_method    generated by PSPW module of NWChem


_cell_length_a            15.0000
_cell_length_b            15.0000
_cell_length_c            15.0000
_cell_angle_alpha         90.0000
_cell_angle_beta          90.0000
_cell_angle_gamma         90.0000

_symmetry_space_group_name_H-M     P1  

loop_
_atom_site_type_symbol
_atom_site_fract_x
_atom_site_fract_y
_atom_site_fract_z
Li            0.000000      0.000000     -0.026667
H             0.000000      0.000000      0.080000
data_nwchem_pspw

_audit_creation_date   Sat May  3 23:10:42 2025
_audit_creation_method    generated by PSPW module of NWChem


_cell_length_a            15.0000
_cell_length_b            15.0000
_cell_length_c            15.0000
_cell_angle_alpha         90.0000
_cell_angle_beta          90.0000
_cell_angle_gamma         90.0000

_symmetry_space_group_name_H-M     P1  

loop_
_atom_site_type_symbol
_atom_site_fract_x
_atom_site_fract_y
_atom_site_fract_z
Li            0.000000      0.000000     -0.028333
H             0.000000      0.000000      0.085000
data_nwchem_pspw

_audit_creation_date   Sat May  3 23:16:20 2025
_audit_creation_method    generated by PSPW module of NWChem


_cell_length_a            15.0000
_cell_length_b            15.0000
_cell_length_c            15.0000
_cell_angle_alpha         90.0000
_cell_angle_beta          90.0000
_cell_angle_gamma         90.0000

_symmetry_space_group_name_H-M     P1  

loop_
_atom_site_type_symbol
_atom_site_fract_x
_atom_site_fract_y
_atom_site_fract_z
Li            0.000000      0.000000     -0.030000
H             0.000000      0.000000      0.090000
data_nwchem_pspw

_audit_creation_date   Sat May  3 23:22:14 2025
_audit_creation_method    generated by PSPW module of NWChem


_cell_length_a            15.0000
_cell_length_b            15.0000
_cell_length_c            15.0000
_cell_angle_alpha         90.0000
_cell_angle_beta          90.0000
_cell_angle_gamma         90.0000

_symmetry_space_group_name_H-M     P1  

loop_
_atom_site_type_symbol
_atom_site_fract_x
_atom_site_fract_y
_atom_site_fract_z
Li            0.000000      0.000000     -0.031667
H             0.000000      0.000000      0.095000
data_nwchem_pspw

_audit_creation_date   Sat May  3 23:27:52 2025
_audit_creation_method    generated by PSPW module of NWChem


_cell_length_a            15.0000
_cell_length_b            15.0000
_cell_length_c            15.0000
_cell_angle_alpha         90.0000
_cell_angle_beta          90.0000
_cell_angle_gamma         90.0000

_symmetry_space_group_name_H-M     P1  

loop_
_atom_site_type_symbol
_atom_site_fract_x
_atom_site_fract_y
_atom_site_fract_z
Li            0.000000      0.000000     -0.033333
H             0.000000      0.000000      0.100000
data_nwchem_pspw

_audit_creation_date   Sat May  3 23:34:59 2025
_audit_creation_method    generated by PSPW module of NWChem


_cell_length_a            15.0000
_cell_length_b            15.0000
_cell_length_c            15.0000
_cell_angle_alpha         90.0000
_cell_angle_beta          90.0000
_cell_angle_gamma         90.0000

_symmetry_space_group_name_H-M     P1  

loop_
_atom_site_type_symbol
_atom_site_fract_x
_atom_site_fract_y
_atom_site_fract_z
Li            0.000000      0.000000     -0.041667
H             0.000000      0.000000      0.125000
data_nwchem_pspw

_audit_creation_date   Sat May  3 23:42:48 2025
_audit_creation_method    generated by PSPW module of NWChem


_cell_length_a            15.0000
_cell_length_b            15.0000
_cell_length_c            15.0000
_cell_angle_alpha         90.0000
_cell_angle_beta          90.0000
_cell_angle_gamma         90.0000

_symmetry_space_group_name_H-M     P1  

loop_
_atom_site_type_symbol
_atom_site_fract_x
_atom_site_fract_y
_atom_site_fract_z
Li            0.000000      0.000000     -0.050000
H             0.000000      0.000000      0.150000
data_nwchem_pspw

_audit_creation_date   Sat May  3 23:50:49 2025
_audit_creation_method    generated by PSPW module of NWChem


_cell_length_a            15.0000
_cell_length_b            15.0000
_cell_length_c            15.0000
_cell_angle_alpha         90.0000
_cell_angle_beta          90.0000
_cell_angle_gamma         90.0000

_symmetry_space_group_name_H-M     P1  

loop_
_atom_site_type_symbol
_atom_site_fract_x
_atom_site_fract_y
_atom_site_fract_z
Li            0.000000      0.000000     -0.058333
H             0.000000      0.000000      0.175000
data_nwchem_pspw

_audit_creation_date   Sat May  3 23:59:14 2025
_audit_creation_method    generated by PSPW module of NWChem


_cell_length_a            15.0000
_cell_length_b            15.0000
_cell_length_c            15.0000
_cell_angle_alpha         90.0000
_cell_angle_beta          90.0000
_cell_angle_gamma         90.0000

_symmetry_space_group_name_H-M     P1  

loop_
_atom_site_type_symbol
_atom_site_fract_x
_atom_site_fract_y
_atom_site_fract_z
Li            0.000000      0.000000     -0.066667
H             0.000000      0.000000      0.200000
data_nwchem_pspw

_audit_creation_date   Sun May  4 00:07:28 2025
_audit_creation_method    generated by PSPW module of NWChem


_cell_length_a            15.0000
_cell_length_b            15.0000
_cell_length_c            15.0000
_cell_angle_alpha         90.0000
_cell_angle_beta          90.0000
_cell_angle_gamma         90.0000

_symmetry_space_group_name_H-M     P1  

loop_
_atom_site_type_symbol
_atom_site_fract_x
_atom_site_fract_y
_atom_site_fract_z
Li            0.000000      0.000000     -0.075000
H             0.000000      0.000000      0.225000
data_nwchem_pspw

_audit_creation_date   Sun May  4 00:14:06 2025
_audit_creation_method    generated by PSPW module of NWChem


_cell_length_a            15.0000
_cell_length_b            15.0000
_cell_length_c            15.0000
_cell_angle_alpha         90.0000
_cell_angle_beta          90.0000
_cell_angle_gamma         90.0000

_symmetry_space_group_name_H-M     P1  

loop_
_atom_site_type_symbol
_atom_site_fract_x
_atom_site_fract_y
_atom_site_fract_z
Li            0.000000      0.000000     -0.083333
H             0.000000      0.000000      0.250000
data_nwchem_pspw

_audit_creation_date   Sun May  4 00:21:08 2025
_audit_creation_method    generated by PSPW module of NWChem


_cell_length_a            15.0000
_cell_length_b            15.0000
_cell_length_c            15.0000
_cell_angle_alpha         90.0000
_cell_angle_beta          90.0000
_cell_angle_gamma         90.0000

_symmetry_space_group_name_H-M     P1  

loop_
_atom_site_type_symbol
_atom_site_fract_x
_atom_site_fract_y
_atom_site_fract_z
Li            0.000000      0.000000     -0.100000
H             0.000000      0.000000      0.300000
data_nwchem_pspw

_audit_creation_date   Sun May  4 00:27:52 2025
_audit_creation_method    generated by PSPW module of NWChem


_cell_length_a            15.0000
_cell_length_b            15.0000
_cell_length_c            15.0000
_cell_angle_alpha         90.0000
_cell_angle_beta          90.0000
_cell_angle_gamma         90.0000

_symmetry_space_group_name_H-M     P1  

loop_
_atom_site_type_symbol
_atom_site_fract_x
_atom_site_fract_y
_atom_site_fract_z
Li            0.000000      0.000000     -0.116667
H             0.000000      0.000000      0.350000
data_nwchem_pspw

_audit_creation_date   Sun May  4 00:38:29 2025
_audit_creation_method    generated by PSPW module of NWChem


_cell_length_a            15.0000
_cell_length_b            15.0000
_cell_length_c            15.0000
_cell_angle_alpha         90.0000
_cell_angle_beta          90.0000
_cell_angle_gamma         90.0000

_symmetry_space_group_name_H-M     P1  

loop_
_atom_site_type_symbol
_atom_site_fract_x
_atom_site_fract_y
_atom_site_fract_z
Li            0.000000      0.000000     -0.021667
H             0.000000      0.000000      0.065000
data_nwchem_pspw

_audit_creation_date   Sun May  4 00:45:29 2025
_audit_creation_method    generated by PSPW module of NWChem


_cell_length_a            15.0000
_cell_length_b            15.0000
_cell_length_c            15.0000
_cell_angle_alpha         90.0000
_cell_angle_beta          90.0000
_cell_angle_gamma         90.0000

_symmetry_space_group_name_H-M     P1  

loop_
_atom_site_type_symbol
_atom_site_fract_x
_atom_site_fract_y
_atom_site_fract_z
Li            0.000000      0.000000     -0.023333
H             0.000000      0.000000      0.070000
data_nwchem_pspw

_audit_creation_date   Sun May  4 00:52:28 2025
_audit_creation_method    generated by PSPW module of NWChem


_cell_length_a            15.0000
_cell_length_b            15.0000
_cell_length_c            15.0000
_cell_angle_alpha         90.0000
_cell_angle_beta          90.0000
_cell_angle_gamma         90.0000

_symmetry_space_group_name_H-M     P1  

loop_
_atom_site_type_symbol
_atom_site_fract_x
_atom_site_fract_y
_atom_site_fract_z
Li            0.000000      0.000000     -0.025000
H             0.000000      0.000000      0.075000
data_nwchem_pspw

_audit_creation_date   Sun May  4 00:59:31 2025
_audit_creation_method    generated by PSPW module of NWChem


_cell_length_a            15.0000
_cell_length_b            15.0000
_cell_length_c            15.0000
_cell_angle_alpha         90.0000
_cell_angle_beta          90.0000
_cell_angle_gamma         90.0000

_symmetry_space_group_name_H-M     P1  

loop_
_atom_site_type_symbol
_atom_site_fract_x
_atom_site_fract_y
_atom_site_fract_z
Li            0.000000      0.000000     -0.026667
H             0.000000      0.000000      0.080000
data_nwchem_pspw

_audit_creation_date   Sun May  4 01:06:30 2025
_audit_creation_method    generated by PSPW module of NWChem


_cell_length_a            15.0000
_cell_length_b            15.0000
_cell_length_c            15.0000
_cell_angle_alpha         90.0000
_cell_angle_beta          90.0000
_cell_angle_gamma         90.0000

_symmetry_space_group_name_H-M     P1  

loop_
_atom_site_type_symbol
_atom_site_fract_x
_atom_site_fract_y
_atom_site_fract_z
Li            0.000000      0.000000     -0.028333
H             0.000000      0.000000      0.085000
data_nwchem_pspw

_audit_creation_date   Sun May  4 01:13:28 2025
_audit_creation_method    generated by PSPW module of NWChem


_cell_length_a            15.0000
_cell_length_b            15.0000
_cell_length_c            15.0000
_cell_angle_alpha         90.0000
_cell_angle_beta          90.0000
_cell_angle_gamma         90.0000

_symmetry_space_group_name_H-M     P1  

loop_
_atom_site_type_symbol
_atom_site_fract_x
_atom_site_fract_y
_atom_site_fract_z
Li            0.000000      0.000000     -0.030000
H             0.000000      0.000000      0.090000
data_nwchem_pspw

_audit_creation_date   Sun May  4 01:20:27 2025
_audit_creation_method    generated by PSPW module of NWChem


_cell_length_a            15.0000
_cell_length_b            15.0000
_cell_length_c            15.0000
_cell_angle_alpha         90.0000
_cell_angle_beta          90.0000
_cell_angle_gamma         90.0000

_symmetry_space_group_name_H-M     P1  

loop_
_atom_site_type_symbol
_atom_site_fract_x
_atom_site_fract_y
_atom_site_fract_z
Li            0.000000      0.000000     -0.031667
H             0.000000      0.000000      0.095000
data_nwchem_pspw

_audit_creation_date   Sun May  4 01:27:24 2025
_audit_creation_method    generated by PSPW module of NWChem


_cell_length_a            15.0000
_cell_length_b            15.0000
_cell_length_c            15.0000
_cell_angle_alpha         90.0000
_cell_angle_beta          90.0000
_cell_angle_gamma         90.0000

_symmetry_space_group_name_H-M     P1  

loop_
_atom_site_type_symbol
_atom_site_fract_x
_atom_site_fract_y
_atom_site_fract_z
Li            0.000000      0.000000     -0.033333
H             0.000000      0.000000      0.100000
data_nwchem_pspw

_audit_creation_date   Sun May  4 01:35:50 2025
_audit_creation_method    generated by PSPW module of NWChem


_cell_length_a            15.0000
_cell_length_b            15.0000
_cell_length_c            15.0000
_cell_angle_alpha         90.0000
_cell_angle_beta          90.0000
_cell_angle_gamma         90.0000

_symmetry_space_group_name_H-M     P1  

loop_
_atom_site_type_symbol
_atom_site_fract_x
_atom_site_fract_y
_atom_site_fract_z
Li            0.000000      0.000000     -0.041667
H             0.000000      0.000000      0.125000
data_nwchem_pspw

_audit_creation_date   Sun May  4 01:44:33 2025
_audit_creation_method    generated by PSPW module of NWChem


_cell_length_a            15.0000
_cell_length_b            15.0000
_cell_length_c            15.0000
_cell_angle_alpha         90.0000
_cell_angle_beta          90.0000
_cell_angle_gamma         90.0000

_symmetry_space_group_name_H-M     P1  

loop_
_atom_site_type_symbol
_atom_site_fract_x
_atom_site_fract_y
_atom_site_fract_z
Li            0.000000      0.000000     -0.050000
H             0.000000      0.000000      0.150000
data_nwchem_pspw

_audit_creation_date   Sun May  4 01:53:20 2025
_audit_creation_method    generated by PSPW module of NWChem


_cell_length_a            15.0000
_cell_length_b            15.0000
_cell_length_c            15.0000
_cell_angle_alpha         90.0000
_cell_angle_beta          90.0000
_cell_angle_gamma         90.0000

_symmetry_space_group_name_H-M     P1  

loop_
_atom_site_type_symbol
_atom_site_fract_x
_atom_site_fract_y
_atom_site_fract_z
Li            0.000000      0.000000     -0.058333
H             0.000000      0.000000      0.175000
data_nwchem_pspw

_audit_creation_date   Sun May  4 02:02:09 2025
_audit_creation_method    generated by PSPW module of NWChem


_cell_length_a            15.0000
_cell_length_b            15.0000
_cell_length_c            15.0000
_cell_angle_alpha         90.0000
_cell_angle_beta          90.0000
_cell_angle_gamma         90.0000

_symmetry_space_group_name_H-M     P1  

loop_
_atom_site_type_symbol
_atom_site_fract_x
_atom_site_fract_y
_atom_site_fract_z
Li            0.000000      0.000000     -0.066667
H             0.000000      0.000000      0.200000
data_nwchem_pspw

_audit_creation_date   Sun May  4 02:11:01 2025
_audit_creation_method    generated by PSPW module of NWChem


_cell_length_a            15.0000
_cell_length_b            15.0000
_cell_length_c            15.0000
_cell_angle_alpha         90.0000
_cell_angle_beta          90.0000
_cell_angle_gamma         90.0000

_symmetry_space_group_name_H-M     P1  

loop_
_atom_site_type_symbol
_atom_site_fract_x
_atom_site_fract_y
_atom_site_fract_z
Li            0.000000      0.000000     -0.075000
H             0.000000      0.000000      0.225000
data_nwchem_pspw

_audit_creation_date   Sun May  4 02:19:50 2025
_audit_creation_method    generated by PSPW module of NWChem


_cell_length_a            15.0000
_cell_length_b            15.0000
_cell_length_c            15.0000
_cell_angle_alpha         90.0000
_cell_angle_beta          90.0000
_cell_angle_gamma         90.0000

_symmetry_space_group_name_H-M     P1  

loop_
_atom_site_type_symbol
_atom_site_fract_x
_atom_site_fract_y
_atom_site_fract_z
Li            0.000000      0.000000     -0.083333
H             0.000000      0.000000      0.250000
data_nwchem_pspw

_audit_creation_date   Sun May  4 02:29:05 2025
_audit_creation_method    generated by PSPW module of NWChem


_cell_length_a            15.0000
_cell_length_b            15.0000
_cell_length_c            15.0000
_cell_angle_alpha         90.0000
_cell_angle_beta          90.0000
_cell_angle_gamma         90.0000

_symmetry_space_group_name_H-M     P1  

loop_
_atom_site_type_symbol
_atom_site_fract_x
_atom_site_fract_y
_atom_site_fract_z
Li            0.000000      0.000000     -0.100000
H             0.000000      0.000000      0.300000
data_nwchem_pspw

_audit_creation_date   Sun May  4 02:37:56 2025
_audit_creation_method    generated by PSPW module of NWChem


_cell_length_a            15.0000
_cell_length_b            15.0000
_cell_length_c            15.0000
_cell_angle_alpha         90.0000
_cell_angle_beta          90.0000
_cell_angle_gamma         90.0000

_symmetry_space_group_name_H-M     P1  

loop_
_atom_site_type_symbol
_atom_site_fract_x
_atom_site_fract_y
_atom_site_fract_z
Li            0.000000      0.000000     -0.116667
H             0.000000      0.000000      0.350000
data_nwchem_pspw

_audit_creation_date   Sun May  4 03:28:23 2025
_audit_creation_method    generated by PSPW module of NWChem


_cell_length_a            15.0000
_cell_length_b            15.0000
_cell_length_c            15.0000
_cell_angle_alpha         90.0000
_cell_angle_beta          90.0000
_cell_angle_gamma         90.0000

_symmetry_space_group_name_H-M     P1  

loop_
_atom_site_type_symbol
_atom_site_fract_x
_atom_site_fract_y
_atom_site_fract_z
Li            0.000000      0.000000     -0.021667
H             0.000000      0.000000      0.065000
data_nwchem_pspw

_audit_creation_date   Sun May  4 03:59:07 2025
_audit_creation_method    generated by PSPW module of NWChem


_cell_length_a            15.0000
_cell_length_b            15.0000
_cell_length_c            15.0000
_cell_angle_alpha         90.0000
_cell_angle_beta          90.0000
_cell_angle_gamma         90.0000

_symmetry_space_group_name_H-M     P1  

loop_
_atom_site_type_symbol
_atom_site_fract_x
_atom_site_fract_y
_atom_site_fract_z
Li            0.000000      0.000000     -0.023333
H             0.000000      0.000000      0.070000
data_nwchem_pspw

_audit_creation_date   Sun May  4 04:14:42 2025
_audit_creation_method    generated by PSPW module of NWChem


_cell_length_a            15.0000
_cell_length_b            15.0000
_cell_length_c            15.0000
_cell_angle_alpha         90.0000
_cell_angle_beta          90.0000
_cell_angle_gamma         90.0000

_symmetry_space_group_name_H-M     P1  

loop_
_atom_site_type_symbol
_atom_site_fract_x
_atom_site_fract_y
_atom_site_fract_z
Li            0.000000      0.000000     -0.025000
H             0.000000      0.000000      0.075000
data_nwchem_pspw

_audit_creation_date   Sun May  4 04:28:34 2025
_audit_creation_method    generated by PSPW module of NWChem


_cell_length_a            15.0000
_cell_length_b            15.0000
_cell_length_c            15.0000
_cell_angle_alpha         90.0000
_cell_angle_beta          90.0000
_cell_angle_gamma         90.0000

_symmetry_space_group_name_H-M     P1  

loop_
_atom_site_type_symbol
_atom_site_fract_x
_atom_site_fract_y
_atom_site_fract_z
Li            0.000000      0.000000     -0.026667
H             0.000000      0.000000      0.080000
data_nwchem_pspw

_audit_creation_date   Sun May  4 04:42:27 2025
_audit_creation_method    generated by PSPW module of NWChem


_cell_length_a            15.0000
_cell_length_b            15.0000
_cell_length_c            15.0000
_cell_angle_alpha         90.0000
_cell_angle_beta          90.0000
_cell_angle_gamma         90.0000

_symmetry_space_group_name_H-M     P1  

loop_
_atom_site_type_symbol
_atom_site_fract_x
_atom_site_fract_y
_atom_site_fract_z
Li            0.000000      0.000000     -0.028333
H             0.000000      0.000000      0.085000
data_nwchem_pspw

_audit_creation_date   Sun May  4 04:56:17 2025
_audit_creation_method    generated by PSPW module of NWChem


_cell_length_a            15.0000
_cell_length_b            15.0000
_cell_length_c            15.0000
_cell_angle_alpha         90.0000
_cell_angle_beta          90.0000
_cell_angle_gamma         90.0000

_symmetry_space_group_name_H-M     P1  

loop_
_atom_site_type_symbol
_atom_site_fract_x
_atom_site_fract_y
_atom_site_fract_z
Li            0.000000      0.000000     -0.030000
H             0.000000      0.000000      0.090000
data_nwchem_pspw

_audit_creation_date   Sun May  4 05:10:07 2025
_audit_creation_method    generated by PSPW module of NWChem


_cell_length_a            15.0000
_cell_length_b            15.0000
_cell_length_c            15.0000
_cell_angle_alpha         90.0000
_cell_angle_beta          90.0000
_cell_angle_gamma         90.0000

_symmetry_space_group_name_H-M     P1  

loop_
_atom_site_type_symbol
_atom_site_fract_x
_atom_site_fract_y
_atom_site_fract_z
Li            0.000000      0.000000     -0.031667
H             0.000000      0.000000      0.095000
data_nwchem_pspw

_audit_creation_date   Sun May  4 05:23:53 2025
_audit_creation_method    generated by PSPW module of NWChem


_cell_length_a            15.0000
_cell_length_b            15.0000
_cell_length_c            15.0000
_cell_angle_alpha         90.0000
_cell_angle_beta          90.0000
_cell_angle_gamma         90.0000

_symmetry_space_group_name_H-M     P1  

loop_
_atom_site_type_symbol
_atom_site_fract_x
_atom_site_fract_y
_atom_site_fract_z
Li            0.000000      0.000000     -0.033333
H             0.000000      0.000000      0.100000
data_nwchem_pspw

_audit_creation_date   Sun May  4 05:43:55 2025
_audit_creation_method    generated by PSPW module of NWChem


_cell_length_a            15.0000
_cell_length_b            15.0000
_cell_length_c            15.0000
_cell_angle_alpha         90.0000
_cell_angle_beta          90.0000
_cell_angle_gamma         90.0000

_symmetry_space_group_name_H-M     P1  

loop_
_atom_site_type_symbol
_atom_site_fract_x
_atom_site_fract_y
_atom_site_fract_z
Li            0.000000      0.000000     -0.041667
H             0.000000      0.000000      0.125000
data_nwchem_pspw

_audit_creation_date   Sun May  4 06:18:48 2025
_audit_creation_method    generated by PSPW module of NWChem


_cell_length_a            15.0000
_cell_length_b            15.0000
_cell_length_c            15.0000
_cell_angle_alpha         90.0000
_cell_angle_beta          90.0000
_cell_angle_gamma         90.0000

_symmetry_space_group_name_H-M     P1  

loop_
_atom_site_type_symbol
_atom_site_fract_x
_atom_site_fract_y
_atom_site_fract_z
Li            0.000000      0.000000     -0.050000
H             0.000000      0.000000      0.150000
data_nwchem_pspw

_audit_creation_date   Sun May  4 06:38:12 2025
_audit_creation_method    generated by PSPW module of NWChem


_cell_length_a            15.0000
_cell_length_b            15.0000
_cell_length_c            15.0000
_cell_angle_alpha         90.0000
_cell_angle_beta          90.0000
_cell_angle_gamma         90.0000

_symmetry_space_group_name_H-M     P1  

loop_
_atom_site_type_symbol
_atom_site_fract_x
_atom_site_fract_y
_atom_site_fract_z
Li            0.000000      0.000000     -0.058333
H             0.000000      0.000000      0.175000
data_nwchem_pspw

_audit_creation_date   Sun May  4 06:55:39 2025
_audit_creation_method    generated by PSPW module of NWChem


_cell_length_a            15.0000
_cell_length_b            15.0000
_cell_length_c            15.0000
_cell_angle_alpha         90.0000
_cell_angle_beta          90.0000
_cell_angle_gamma         90.0000

_symmetry_space_group_name_H-M     P1  

loop_
_atom_site_type_symbol
_atom_site_fract_x
_atom_site_fract_y
_atom_site_fract_z
Li            0.000000      0.000000     -0.066667
H             0.000000      0.000000      0.200000
data_nwchem_pspw

_audit_creation_date   Sun May  4 07:12:56 2025
_audit_creation_method    generated by PSPW module of NWChem


_cell_length_a            15.0000
_cell_length_b            15.0000
_cell_length_c            15.0000
_cell_angle_alpha         90.0000
_cell_angle_beta          90.0000
_cell_angle_gamma         90.0000

_symmetry_space_group_name_H-M     P1  

loop_
_atom_site_type_symbol
_atom_site_fract_x
_atom_site_fract_y
_atom_site_fract_z
Li            0.000000      0.000000     -0.075000
H             0.000000      0.000000      0.225000
data_nwchem_pspw

_audit_creation_date   Sun May  4 07:30:17 2025
_audit_creation_method    generated by PSPW module of NWChem


_cell_length_a            15.0000
_cell_length_b            15.0000
_cell_length_c            15.0000
_cell_angle_alpha         90.0000
_cell_angle_beta          90.0000
_cell_angle_gamma         90.0000

_symmetry_space_group_name_H-M     P1  

loop_
_atom_site_type_symbol
_atom_site_fract_x
_atom_site_fract_y
_atom_site_fract_z
Li            0.000000      0.000000     -0.083333
H             0.000000      0.000000      0.250000
data_nwchem_pspw

_audit_creation_date   Sun May  4 07:48:51 2025
_audit_creation_method    generated by PSPW module of NWChem


_cell_length_a            15.0000
_cell_length_b            15.0000
_cell_length_c            15.0000
_cell_angle_alpha         90.0000
_cell_angle_beta          90.0000
_cell_angle_gamma         90.0000

_symmetry_space_group_name_H-M     P1  

loop_
_atom_site_type_symbol
_atom_site_fract_x
_atom_site_fract_y
_atom_site_fract_z
Li            0.000000      0.000000     -0.100000
H             0.000000      0.000000      0.300000
data_nwchem_pspw

_audit_creation_date   Sun May  4 08:03:46 2025
_audit_creation_method    generated by PSPW module of NWChem


_cell_length_a            15.0000
_cell_length_b            15.0000
_cell_length_c            15.0000
_cell_angle_alpha         90.0000
_cell_angle_beta          90.0000
_cell_angle_gamma         90.0000

_symmetry_space_group_name_H-M     P1  

loop_
_atom_site_type_symbol
_atom_site_fract_x
_atom_site_fract_y
_atom_site_fract_z
Li            0.000000      0.000000     -0.021667
H             0.000000      0.000000      0.065000
data_nwchem_pspw

_audit_creation_date   Sun May  4 08:06:26 2025
_audit_creation_method    generated by PSPW module of NWChem


_cell_length_a            15.0000
_cell_length_b            15.0000
_cell_length_c            15.0000
_cell_angle_alpha         90.0000
_cell_angle_beta          90.0000
_cell_angle_gamma         90.0000

_symmetry_space_group_name_H-M     P1  

loop_
_atom_site_type_symbol
_atom_site_fract_x
_atom_site_fract_y
_atom_site_fract_z
Li            0.000000      0.000000     -0.023333
H             0.000000      0.000000      0.070000
data_nwchem_pspw

_audit_creation_date   Sun May  4 08:09:06 2025
_audit_creation_method    generated by PSPW module of NWChem


_cell_length_a            15.0000
_cell_length_b            15.0000
_cell_length_c            15.0000
_cell_angle_alpha         90.0000
_cell_angle_beta          90.0000
_cell_angle_gamma         90.0000

_symmetry_space_group_name_H-M     P1  

loop_
_atom_site_type_symbol
_atom_site_fract_x
_atom_site_fract_y
_atom_site_fract_z
Li            0.000000      0.000000     -0.025000
H             0.000000      0.000000      0.075000
data_nwchem_pspw

_audit_creation_date   Sun May  4 08:11:45 2025
_audit_creation_method    generated by PSPW module of NWChem


_cell_length_a            15.0000
_cell_length_b            15.0000
_cell_length_c            15.0000
_cell_angle_alpha         90.0000
_cell_angle_beta          90.0000
_cell_angle_gamma         90.0000

_symmetry_space_group_name_H-M     P1  

loop_
_atom_site_type_symbol
_atom_site_fract_x
_atom_site_fract_y
_atom_site_fract_z
Li            0.000000      0.000000     -0.026667
H             0.000000      0.000000      0.080000
data_nwchem_pspw

_audit_creation_date   Sun May  4 08:14:24 2025
_audit_creation_method    generated by PSPW module of NWChem


_cell_length_a            15.0000
_cell_length_b            15.0000
_cell_length_c            15.0000
_cell_angle_alpha         90.0000
_cell_angle_beta          90.0000
_cell_angle_gamma         90.0000

_symmetry_space_group_name_H-M     P1  

loop_
_atom_site_type_symbol
_atom_site_fract_x
_atom_site_fract_y
_atom_site_fract_z
Li            0.000000      0.000000     -0.028333
H             0.000000      0.000000      0.085000
data_nwchem_pspw

_audit_creation_date   Sun May  4 08:17:02 2025
_audit_creation_method    generated by PSPW module of NWChem


_cell_length_a            15.0000
_cell_length_b            15.0000
_cell_length_c            15.0000
_cell_angle_alpha         90.0000
_cell_angle_beta          90.0000
_cell_angle_gamma         90.0000

_symmetry_space_group_name_H-M     P1  

loop_
_atom_site_type_symbol
_atom_site_fract_x
_atom_site_fract_y
_atom_site_fract_z
Li            0.000000      0.000000     -0.030000
H             0.000000      0.000000      0.090000
data_nwchem_pspw

_audit_creation_date   Sun May  4 08:19:41 2025
_audit_creation_method    generated by PSPW module of NWChem


_cell_length_a            15.0000
_cell_length_b            15.0000
_cell_length_c            15.0000
_cell_angle_alpha         90.0000
_cell_angle_beta          90.0000
_cell_angle_gamma         90.0000

_symmetry_space_group_name_H-M     P1  

loop_
_atom_site_type_symbol
_atom_site_fract_x
_atom_site_fract_y
_atom_site_fract_z
Li            0.000000      0.000000     -0.031667
H             0.000000      0.000000      0.095000
data_nwchem_pspw

_audit_creation_date   Sun May  4 08:22:19 2025
_audit_creation_method    generated by PSPW module of NWChem


_cell_length_a            15.0000
_cell_length_b            15.0000
_cell_length_c            15.0000
_cell_angle_alpha         90.0000
_cell_angle_beta          90.0000
_cell_angle_gamma         90.0000

_symmetry_space_group_name_H-M     P1  

loop_
_atom_site_type_symbol
_atom_site_fract_x
_atom_site_fract_y
_atom_site_fract_z
Li            0.000000      0.000000     -0.033333
H             0.000000      0.000000      0.100000
data_nwchem_pspw

_audit_creation_date   Sun May  4 08:25:23 2025
_audit_creation_method    generated by PSPW module of NWChem


_cell_length_a            15.0000
_cell_length_b            15.0000
_cell_length_c            15.0000
_cell_angle_alpha         90.0000
_cell_angle_beta          90.0000
_cell_angle_gamma         90.0000

_symmetry_space_group_name_H-M     P1  

loop_
_atom_site_type_symbol
_atom_site_fract_x
_atom_site_fract_y
_atom_site_fract_z
Li            0.000000      0.000000     -0.041667
H             0.000000      0.000000      0.125000
data_nwchem_pspw

_audit_creation_date   Sun May  4 08:28:36 2025
_audit_creation_method    generated by PSPW module of NWChem


_cell_length_a            15.0000
_cell_length_b            15.0000
_cell_length_c            15.0000
_cell_angle_alpha         90.0000
_cell_angle_beta          90.0000
_cell_angle_gamma         90.0000

_symmetry_space_group_name_H-M     P1  

loop_
_atom_site_type_symbol
_atom_site_fract_x
_atom_site_fract_y
_atom_site_fract_z
Li            0.000000      0.000000     -0.050000
H             0.000000      0.000000      0.150000
data_nwchem_pspw

_audit_creation_date   Sun May  4 08:31:55 2025
_audit_creation_method    generated by PSPW module of NWChem


_cell_length_a            15.0000
_cell_length_b            15.0000
_cell_length_c            15.0000
_cell_angle_alpha         90.0000
_cell_angle_beta          90.0000
_cell_angle_gamma         90.0000

_symmetry_space_group_name_H-M     P1  

loop_
_atom_site_type_symbol
_atom_site_fract_x
_atom_site_fract_y
_atom_site_fract_z
Li            0.000000      0.000000     -0.058333
H             0.000000      0.000000      0.175000
data_nwchem_pspw

_audit_creation_date   Sun May  4 08:35:19 2025
_audit_creation_method    generated by PSPW module of NWChem


_cell_length_a            15.0000
_cell_length_b            15.0000
_cell_length_c            15.0000
_cell_angle_alpha         90.0000
_cell_angle_beta          90.0000
_cell_angle_gamma         90.0000

_symmetry_space_group_name_H-M     P1  

loop_
_atom_site_type_symbol
_atom_site_fract_x
_atom_site_fract_y
_atom_site_fract_z
Li            0.000000      0.000000     -0.066667
H             0.000000      0.000000      0.200000
data_nwchem_pspw

_audit_creation_date   Sun May  4 08:38:47 2025
_audit_creation_method    generated by PSPW module of NWChem


_cell_length_a            15.0000
_cell_length_b            15.0000
_cell_length_c            15.0000
_cell_angle_alpha         90.0000
_cell_angle_beta          90.0000
_cell_angle_gamma         90.0000

_symmetry_space_group_name_H-M     P1  

loop_
_atom_site_type_symbol
_atom_site_fract_x
_atom_site_fract_y
_atom_site_fract_z
Li            0.000000      0.000000     -0.075000
H             0.000000      0.000000      0.225000
data_nwchem_pspw

_audit_creation_date   Sun May  4 08:42:15 2025
_audit_creation_method    generated by PSPW module of NWChem


_cell_length_a            15.0000
_cell_length_b            15.0000
_cell_length_c            15.0000
_cell_angle_alpha         90.0000
_cell_angle_beta          90.0000
_cell_angle_gamma         90.0000

_symmetry_space_group_name_H-M     P1  

loop_
_atom_site_type_symbol
_atom_site_fract_x
_atom_site_fract_y
_atom_site_fract_z
Li            0.000000      0.000000     -0.083333
H             0.000000      0.000000      0.250000
data_nwchem_pspw

_audit_creation_date   Sun May  4 08:45:53 2025
_audit_creation_method    generated by PSPW module of NWChem


_cell_length_a            15.0000
_cell_length_b            15.0000
_cell_length_c            15.0000
_cell_angle_alpha         90.0000
_cell_angle_beta          90.0000
_cell_angle_gamma         90.0000

_symmetry_space_group_name_H-M     P1  

loop_
_atom_site_type_symbol
_atom_site_fract_x
_atom_site_fract_y
_atom_site_fract_z
Li            0.000000      0.000000     -0.100000
H             0.000000      0.000000      0.300000
data_nwchem_pspw

_audit_creation_date   Sun May  4 08:49:23 2025
_audit_creation_method    generated by PSPW module of NWChem


_cell_length_a            15.0000
_cell_length_b            15.0000
_cell_length_c            15.0000
_cell_angle_alpha         90.0000
_cell_angle_beta          90.0000
_cell_angle_gamma         90.0000

_symmetry_space_group_name_H-M     P1  

loop_
_atom_site_type_symbol
_atom_site_fract_x
_atom_site_fract_y
_atom_site_fract_z
Li            0.000000      0.000000     -0.116667
H             0.000000      0.000000      0.350000
data_nwchem_pspw

_audit_creation_date   Sun May  4 08:54:35 2025
_audit_creation_method    generated by PSPW module of NWChem


_cell_length_a            15.0000
_cell_length_b            15.0000
_cell_length_c            15.0000
_cell_angle_alpha         90.0000
_cell_angle_beta          90.0000
_cell_angle_gamma         90.0000

_symmetry_space_group_name_H-M     P1  

loop_
_atom_site_type_symbol
_atom_site_fract_x
_atom_site_fract_y
_atom_site_fract_z
Li            0.000000      0.000000     -0.021667
H             0.000000      0.000000      0.065000
data_nwchem_pspw

_audit_creation_date   Sun May  4 08:58:12 2025
_audit_creation_method    generated by PSPW module of NWChem


_cell_length_a            15.0000
_cell_length_b            15.0000
_cell_length_c            15.0000
_cell_angle_alpha         90.0000
_cell_angle_beta          90.0000
_cell_angle_gamma         90.0000

_symmetry_space_group_name_H-M     P1  

loop_
_atom_site_type_symbol
_atom_site_fract_x
_atom_site_fract_y
_atom_site_fract_z
Li            0.000000      0.000000     -0.023333
H             0.000000      0.000000      0.070000
data_nwchem_pspw

_audit_creation_date   Sun May  4 09:01:50 2025
_audit_creation_method    generated by PSPW module of NWChem


_cell_length_a            15.0000
_cell_length_b            15.0000
_cell_length_c            15.0000
_cell_angle_alpha         90.0000
_cell_angle_beta          90.0000
_cell_angle_gamma         90.0000

_symmetry_space_group_name_H-M     P1  

loop_
_atom_site_type_symbol
_atom_site_fract_x
_atom_site_fract_y
_atom_site_fract_z
Li            0.000000      0.000000     -0.025000
H             0.000000      0.000000      0.075000
data_nwchem_pspw

_audit_creation_date   Sun May  4 09:05:34 2025
_audit_creation_method    generated by PSPW module of NWChem


_cell_length_a            15.0000
_cell_length_b            15.0000
_cell_length_c            15.0000
_cell_angle_alpha         90.0000
_cell_angle_beta          90.0000
_cell_angle_gamma         90.0000

_symmetry_space_group_name_H-M     P1  

loop_
_atom_site_type_symbol
_atom_site_fract_x
_atom_site_fract_y
_atom_site_fract_z
Li            0.000000      0.000000     -0.026667
H             0.000000      0.000000      0.080000
data_nwchem_pspw

_audit_creation_date   Sun May  4 09:09:11 2025
_audit_creation_method    generated by PSPW module of NWChem


_cell_length_a            15.0000
_cell_length_b            15.0000
_cell_length_c            15.0000
_cell_angle_alpha         90.0000
_cell_angle_beta          90.0000
_cell_angle_gamma         90.0000

_symmetry_space_group_name_H-M     P1  

loop_
_atom_site_type_symbol
_atom_site_fract_x
_atom_site_fract_y
_atom_site_fract_z
Li            0.000000      0.000000     -0.028333
H             0.000000      0.000000      0.085000
data_nwchem_pspw

_audit_creation_date   Sun May  4 09:12:47 2025
_audit_creation_method    generated by PSPW module of NWChem


_cell_length_a            15.0000
_cell_length_b            15.0000
_cell_length_c            15.0000
_cell_angle_alpha         90.0000
_cell_angle_beta          90.0000
_cell_angle_gamma         90.0000

_symmetry_space_group_name_H-M     P1  

loop_
_atom_site_type_symbol
_atom_site_fract_x
_atom_site_fract_y
_atom_site_fract_z
Li            0.000000      0.000000     -0.030000
H             0.000000      0.000000      0.090000
data_nwchem_pspw

_audit_creation_date   Sun May  4 09:16:28 2025
_audit_creation_method    generated by PSPW module of NWChem


_cell_length_a            15.0000
_cell_length_b            15.0000
_cell_length_c            15.0000
_cell_angle_alpha         90.0000
_cell_angle_beta          90.0000
_cell_angle_gamma         90.0000

_symmetry_space_group_name_H-M     P1  

loop_
_atom_site_type_symbol
_atom_site_fract_x
_atom_site_fract_y
_atom_site_fract_z
Li            0.000000      0.000000     -0.031667
H             0.000000      0.000000      0.095000
data_nwchem_pspw

_audit_creation_date   Sun May  4 09:20:04 2025
_audit_creation_method    generated by PSPW module of NWChem


_cell_length_a            15.0000
_cell_length_b            15.0000
_cell_length_c            15.0000
_cell_angle_alpha         90.0000
_cell_angle_beta          90.0000
_cell_angle_gamma         90.0000

_symmetry_space_group_name_H-M     P1  

loop_
_atom_site_type_symbol
_atom_site_fract_x
_atom_site_fract_y
_atom_site_fract_z
Li            0.000000      0.000000     -0.033333
H             0.000000      0.000000      0.100000
data_nwchem_pspw

_audit_creation_date   Sun May  4 09:24:13 2025
_audit_creation_method    generated by PSPW module of NWChem


_cell_length_a            15.0000
_cell_length_b            15.0000
_cell_length_c            15.0000
_cell_angle_alpha         90.0000
_cell_angle_beta          90.0000
_cell_angle_gamma         90.0000

_symmetry_space_group_name_H-M     P1  

loop_
_atom_site_type_symbol
_atom_site_fract_x
_atom_site_fract_y
_atom_site_fract_z
Li            0.000000      0.000000     -0.041667
H             0.000000      0.000000      0.125000
data_nwchem_pspw

_audit_creation_date   Sun May  4 09:28:31 2025
_audit_creation_method    generated by PSPW module of NWChem


_cell_length_a            15.0000
_cell_length_b            15.0000
_cell_length_c            15.0000
_cell_angle_alpha         90.0000
_cell_angle_beta          90.0000
_cell_angle_gamma         90.0000

_symmetry_space_group_name_H-M     P1  

loop_
_atom_site_type_symbol
_atom_site_fract_x
_atom_site_fract_y
_atom_site_fract_z
Li            0.000000      0.000000     -0.050000
H             0.000000      0.000000      0.150000
data_nwchem_pspw

_audit_creation_date   Sun May  4 09:32:49 2025
_audit_creation_method    generated by PSPW module of NWChem


_cell_length_a            15.0000
_cell_length_b            15.0000
_cell_length_c            15.0000
_cell_angle_alpha         90.0000
_cell_angle_beta          90.0000
_cell_angle_gamma         90.0000

_symmetry_space_group_name_H-M     P1  

loop_
_atom_site_type_symbol
_atom_site_fract_x
_atom_site_fract_y
_atom_site_fract_z
Li            0.000000      0.000000     -0.058333
H             0.000000      0.000000      0.175000
data_nwchem_pspw

_audit_creation_date   Sun May  4 09:37:08 2025
_audit_creation_method    generated by PSPW module of NWChem


_cell_length_a            15.0000
_cell_length_b            15.0000
_cell_length_c            15.0000
_cell_angle_alpha         90.0000
_cell_angle_beta          90.0000
_cell_angle_gamma         90.0000

_symmetry_space_group_name_H-M     P1  

loop_
_atom_site_type_symbol
_atom_site_fract_x
_atom_site_fract_y
_atom_site_fract_z
Li            0.000000      0.000000     -0.066667
H             0.000000      0.000000      0.200000
data_nwchem_pspw

_audit_creation_date   Sun May  4 09:41:27 2025
_audit_creation_method    generated by PSPW module of NWChem


_cell_length_a            15.0000
_cell_length_b            15.0000
_cell_length_c            15.0000
_cell_angle_alpha         90.0000
_cell_angle_beta          90.0000
_cell_angle_gamma         90.0000

_symmetry_space_group_name_H-M     P1  

loop_
_atom_site_type_symbol
_atom_site_fract_x
_atom_site_fract_y
_atom_site_fract_z
Li            0.000000      0.000000     -0.075000
H             0.000000      0.000000      0.225000
data_nwchem_pspw

_audit_creation_date   Sun May  4 09:45:45 2025
_audit_creation_method    generated by PSPW module of NWChem


_cell_length_a            15.0000
_cell_length_b            15.0000
_cell_length_c            15.0000
_cell_angle_alpha         90.0000
_cell_angle_beta          90.0000
_cell_angle_gamma         90.0000

_symmetry_space_group_name_H-M     P1  

loop_
_atom_site_type_symbol
_atom_site_fract_x
_atom_site_fract_y
_atom_site_fract_z
Li            0.000000      0.000000     -0.083333
H             0.000000      0.000000      0.250000
data_nwchem_pspw

_audit_creation_date   Sun May  4 09:50:15 2025
_audit_creation_method    generated by PSPW module of NWChem


_cell_length_a            15.0000
_cell_length_b            15.0000
_cell_length_c            15.0000
_cell_angle_alpha         90.0000
_cell_angle_beta          90.0000
_cell_angle_gamma         90.0000

_symmetry_space_group_name_H-M     P1  

loop_
_atom_site_type_symbol
_atom_site_fract_x
_atom_site_fract_y
_atom_site_fract_z
Li            0.000000      0.000000     -0.100000
H             0.000000      0.000000      0.300000
data_nwchem_pspw

_audit_creation_date   Sun May  4 09:54:32 2025
_audit_creation_method    generated by PSPW module of NWChem


_cell_length_a            15.0000
_cell_length_b            15.0000
_cell_length_c            15.0000
_cell_angle_alpha         90.0000
_cell_angle_beta          90.0000
_cell_angle_gamma         90.0000

_symmetry_space_group_name_H-M     P1  

loop_
_atom_site_type_symbol
_atom_site_fract_x
_atom_site_fract_y
_atom_site_fract_z
Li            0.000000      0.000000     -0.116667
H             0.000000      0.000000      0.350000
data_nwchem_pspw

_audit_creation_date   Sun May  4 10:14:38 2025
_audit_creation_method    generated by PSPW module of NWChem


_cell_length_a            15.0000
_cell_length_b            15.0000
_cell_length_c            15.0000
_cell_angle_alpha         90.0000
_cell_angle_beta          90.0000
_cell_angle_gamma         90.0000

_symmetry_space_group_name_H-M     P1  

loop_
_atom_site_type_symbol
_atom_site_fract_x
_atom_site_fract_y
_atom_site_fract_z
Li            0.000000      0.000000     -0.021667
H             0.000000      0.000000      0.065000
data_nwchem_pspw

_audit_creation_date   Sun May  4 10:27:10 2025
_audit_creation_method    generated by PSPW module of NWChem


_cell_length_a            15.0000
_cell_length_b            15.0000
_cell_length_c            15.0000
_cell_angle_alpha         90.0000
_cell_angle_beta          90.0000
_cell_angle_gamma         90.0000

_symmetry_space_group_name_H-M     P1  

loop_
_atom_site_type_symbol
_atom_site_fract_x
_atom_site_fract_y
_atom_site_fract_z
Li            0.000000      0.000000     -0.023333
H             0.000000      0.000000      0.070000
data_nwchem_pspw

_audit_creation_date   Sun May  4 10:34:30 2025
_audit_creation_method    generated by PSPW module of NWChem


_cell_length_a            15.0000
_cell_length_b            15.0000
_cell_length_c            15.0000
_cell_angle_alpha         90.0000
_cell_angle_beta          90.0000
_cell_angle_gamma         90.0000

_symmetry_space_group_name_H-M     P1  

loop_
_atom_site_type_symbol
_atom_site_fract_x
_atom_site_fract_y
_atom_site_fract_z
Li            0.000000      0.000000     -0.025000
H             0.000000      0.000000      0.075000
data_nwchem_pspw

_audit_creation_date   Sun May  4 10:40:42 2025
_audit_creation_method    generated by PSPW module of NWChem


_cell_length_a            15.0000
_cell_length_b            15.0000
_cell_length_c            15.0000
_cell_angle_alpha         90.0000
_cell_angle_beta          90.0000
_cell_angle_gamma         90.0000

_symmetry_space_group_name_H-M     P1  

loop_
_atom_site_type_symbol
_atom_site_fract_x
_atom_site_fract_y
_atom_site_fract_z
Li            0.000000      0.000000     -0.026667
H             0.000000      0.000000      0.080000
data_nwchem_pspw

_audit_creation_date   Sun May  4 10:46:56 2025
_audit_creation_method    generated by PSPW module of NWChem


_cell_length_a            15.0000
_cell_length_b            15.0000
_cell_length_c            15.0000
_cell_angle_alpha         90.0000
_cell_angle_beta          90.0000
_cell_angle_gamma         90.0000

_symmetry_space_group_name_H-M     P1  

loop_
_atom_site_type_symbol
_atom_site_fract_x
_atom_site_fract_y
_atom_site_fract_z
Li            0.000000      0.000000     -0.028333
H             0.000000      0.000000      0.085000
data_nwchem_pspw

_audit_creation_date   Sun May  4 10:53:09 2025
_audit_creation_method    generated by PSPW module of NWChem


_cell_length_a            15.0000
_cell_length_b            15.0000
_cell_length_c            15.0000
_cell_angle_alpha         90.0000
_cell_angle_beta          90.0000
_cell_angle_gamma         90.0000

_symmetry_space_group_name_H-M     P1  

loop_
_atom_site_type_symbol
_atom_site_fract_x
_atom_site_fract_y
_atom_site_fract_z
Li            0.000000      0.000000     -0.030000
H             0.000000      0.000000      0.090000
data_nwchem_pspw

_audit_creation_date   Sun May  4 10:59:19 2025
_audit_creation_method    generated by PSPW module of NWChem


_cell_length_a            15.0000
_cell_length_b            15.0000
_cell_length_c            15.0000
_cell_angle_alpha         90.0000
_cell_angle_beta          90.0000
_cell_angle_gamma         90.0000

_symmetry_space_group_name_H-M     P1  

loop_
_atom_site_type_symbol
_atom_site_fract_x
_atom_site_fract_y
_atom_site_fract_z
Li            0.000000      0.000000     -0.031667
H             0.000000      0.000000      0.095000
data_nwchem_pspw

_audit_creation_date   Sun May  4 11:05:28 2025
_audit_creation_method    generated by PSPW module of NWChem


_cell_length_a            15.0000
_cell_length_b            15.0000
_cell_length_c            15.0000
_cell_angle_alpha         90.0000
_cell_angle_beta          90.0000
_cell_angle_gamma         90.0000

_symmetry_space_group_name_H-M     P1  

loop_
_atom_site_type_symbol
_atom_site_fract_x
_atom_site_fract_y
_atom_site_fract_z
Li            0.000000      0.000000     -0.033333
H             0.000000      0.000000      0.100000
data_nwchem_pspw

_audit_creation_date   Sun May  4 11:14:01 2025
_audit_creation_method    generated by PSPW module of NWChem


_cell_length_a            15.0000
_cell_length_b            15.0000
_cell_length_c            15.0000
_cell_angle_alpha         90.0000
_cell_angle_beta          90.0000
_cell_angle_gamma         90.0000

_symmetry_space_group_name_H-M     P1  

loop_
_atom_site_type_symbol
_atom_site_fract_x
_atom_site_fract_y
_atom_site_fract_z
Li            0.000000      0.000000     -0.041667
H             0.000000      0.000000      0.125000
data_nwchem_pspw

_audit_creation_date   Sun May  4 11:26:05 2025
_audit_creation_method    generated by PSPW module of NWChem


_cell_length_a            15.0000
_cell_length_b            15.0000
_cell_length_c            15.0000
_cell_angle_alpha         90.0000
_cell_angle_beta          90.0000
_cell_angle_gamma         90.0000

_symmetry_space_group_name_H-M     P1  

loop_
_atom_site_type_symbol
_atom_site_fract_x
_atom_site_fract_y
_atom_site_fract_z
Li            0.000000      0.000000     -0.050000
H             0.000000      0.000000      0.150000
data_nwchem_pspw

_audit_creation_date   Sun May  4 11:37:00 2025
_audit_creation_method    generated by PSPW module of NWChem


_cell_length_a            15.0000
_cell_length_b            15.0000
_cell_length_c            15.0000
_cell_angle_alpha         90.0000
_cell_angle_beta          90.0000
_cell_angle_gamma         90.0000

_symmetry_space_group_name_H-M     P1  

loop_
_atom_site_type_symbol
_atom_site_fract_x
_atom_site_fract_y
_atom_site_fract_z
Li            0.000000      0.000000     -0.058333
H             0.000000      0.000000      0.175000
data_nwchem_pspw

_audit_creation_date   Sun May  4 11:49:43 2025
_audit_creation_method    generated by PSPW module of NWChem


_cell_length_a            15.0000
_cell_length_b            15.0000
_cell_length_c            15.0000
_cell_angle_alpha         90.0000
_cell_angle_beta          90.0000
_cell_angle_gamma         90.0000

_symmetry_space_group_name_H-M     P1  

loop_
_atom_site_type_symbol
_atom_site_fract_x
_atom_site_fract_y
_atom_site_fract_z
Li            0.000000      0.000000     -0.066667
H             0.000000      0.000000      0.200000
data_nwchem_pspw

_audit_creation_date   Sun May  4 11:57:17 2025
_audit_creation_method    generated by PSPW module of NWChem


_cell_length_a            15.0000
_cell_length_b            15.0000
_cell_length_c            15.0000
_cell_angle_alpha         90.0000
_cell_angle_beta          90.0000
_cell_angle_gamma         90.0000

_symmetry_space_group_name_H-M     P1  

loop_
_atom_site_type_symbol
_atom_site_fract_x
_atom_site_fract_y
_atom_site_fract_z
Li            0.000000      0.000000     -0.075000
H             0.000000      0.000000      0.225000
data_nwchem_pspw

_audit_creation_date   Sun May  4 12:04:56 2025
_audit_creation_method    generated by PSPW module of NWChem


_cell_length_a            15.0000
_cell_length_b            15.0000
_cell_length_c            15.0000
_cell_angle_alpha         90.0000
_cell_angle_beta          90.0000
_cell_angle_gamma         90.0000

_symmetry_space_group_name_H-M     P1  

loop_
_atom_site_type_symbol
_atom_site_fract_x
_atom_site_fract_y
_atom_site_fract_z
Li            0.000000      0.000000     -0.083333
H             0.000000      0.000000      0.250000
data_nwchem_pspw

_audit_creation_date   Sun May  4 12:12:55 2025
_audit_creation_method    generated by PSPW module of NWChem


_cell_length_a            15.0000
_cell_length_b            15.0000
_cell_length_c            15.0000
_cell_angle_alpha         90.0000
_cell_angle_beta          90.0000
_cell_angle_gamma         90.0000

_symmetry_space_group_name_H-M     P1  

loop_
_atom_site_type_symbol
_atom_site_fract_x
_atom_site_fract_y
_atom_site_fract_z
Li            0.000000      0.000000     -0.100000
H             0.000000      0.000000      0.300000
data_nwchem_pspw

_audit_creation_date   Sun May  4 12:20:30 2025
_audit_creation_method    generated by PSPW module of NWChem


_cell_length_a            15.0000
_cell_length_b            15.0000
_cell_length_c            15.0000
_cell_angle_alpha         90.0000
_cell_angle_beta          90.0000
_cell_angle_gamma         90.0000

_symmetry_space_group_name_H-M     P1  

loop_
_atom_site_type_symbol
_atom_site_fract_x
_atom_site_fract_y
_atom_site_fract_z
Li            0.000000      0.000000     -0.116667
H             0.000000      0.000000      0.350000
data_nwchem_pspw

_audit_creation_date   Sun May  4 13:02:15 2025
_audit_creation_method    generated by PSPW module of NWChem


_cell_length_a            15.0000
_cell_length_b            15.0000
_cell_length_c            15.0000
_cell_angle_alpha         90.0000
_cell_angle_beta          90.0000
_cell_angle_gamma         90.0000

_symmetry_space_group_name_H-M     P1  

loop_
_atom_site_type_symbol
_atom_site_fract_x
_atom_site_fract_y
_atom_site_fract_z
Li            0.000000      0.000000     -0.021667
H             0.000000      0.000000      0.065000
data_nwchem_pspw

_audit_creation_date   Sun May  4 13:11:33 2025
_audit_creation_method    generated by PSPW module of NWChem


_cell_length_a            15.0000
_cell_length_b            15.0000
_cell_length_c            15.0000
_cell_angle_alpha         90.0000
_cell_angle_beta          90.0000
_cell_angle_gamma         90.0000

_symmetry_space_group_name_H-M     P1  

loop_
_atom_site_type_symbol
_atom_site_fract_x
_atom_site_fract_y
_atom_site_fract_z
Li            0.000000      0.000000     -0.023333
H             0.000000      0.000000      0.070000
data_nwchem_pspw

_audit_creation_date   Sun May  4 13:20:30 2025
_audit_creation_method    generated by PSPW module of NWChem


_cell_length_a            15.0000
_cell_length_b            15.0000
_cell_length_c            15.0000
_cell_angle_alpha         90.0000
_cell_angle_beta          90.0000
_cell_angle_gamma         90.0000

_symmetry_space_group_name_H-M     P1  

loop_
_atom_site_type_symbol
_atom_site_fract_x
_atom_site_fract_y
_atom_site_fract_z
Li            0.000000      0.000000     -0.025000
H             0.000000      0.000000      0.075000
data_nwchem_pspw

_audit_creation_date   Sun May  4 13:29:33 2025
_audit_creation_method    generated by PSPW module of NWChem


_cell_length_a            15.0000
_cell_length_b            15.0000
_cell_length_c            15.0000
_cell_angle_alpha         90.0000
_cell_angle_beta          90.0000
_cell_angle_gamma         90.0000

_symmetry_space_group_name_H-M     P1  

loop_
_atom_site_type_symbol
_atom_site_fract_x
_atom_site_fract_y
_atom_site_fract_z
Li            0.000000      0.000000     -0.026667
H             0.000000      0.000000      0.080000
data_nwchem_pspw

_audit_creation_date   Sun May  4 13:38:38 2025
_audit_creation_method    generated by PSPW module of NWChem


_cell_length_a            15.0000
_cell_length_b            15.0000
_cell_length_c            15.0000
_cell_angle_alpha         90.0000
_cell_angle_beta          90.0000
_cell_angle_gamma         90.0000

_symmetry_space_group_name_H-M     P1  

loop_
_atom_site_type_symbol
_atom_site_fract_x
_atom_site_fract_y
_atom_site_fract_z
Li            0.000000      0.000000     -0.028333
H             0.000000      0.000000      0.085000
data_nwchem_pspw

_audit_creation_date   Sun May  4 13:47:46 2025
_audit_creation_method    generated by PSPW module of NWChem


_cell_length_a            15.0000
_cell_length_b            15.0000
_cell_length_c            15.0000
_cell_angle_alpha         90.0000
_cell_angle_beta          90.0000
_cell_angle_gamma         90.0000

_symmetry_space_group_name_H-M     P1  

loop_
_atom_site_type_symbol
_atom_site_fract_x
_atom_site_fract_y
_atom_site_fract_z
Li            0.000000      0.000000     -0.030000
H             0.000000      0.000000      0.090000
data_nwchem_pspw

_audit_creation_date   Sun May  4 13:56:57 2025
_audit_creation_method    generated by PSPW module of NWChem


_cell_length_a            15.0000
_cell_length_b            15.0000
_cell_length_c            15.0000
_cell_angle_alpha         90.0000
_cell_angle_beta          90.0000
_cell_angle_gamma         90.0000

_symmetry_space_group_name_H-M     P1  

loop_
_atom_site_type_symbol
_atom_site_fract_x
_atom_site_fract_y
_atom_site_fract_z
Li            0.000000      0.000000     -0.031667
H             0.000000      0.000000      0.095000
data_nwchem_pspw

_audit_creation_date   Sun May  4 14:06:09 2025
_audit_creation_method    generated by PSPW module of NWChem


_cell_length_a            15.0000
_cell_length_b            15.0000
_cell_length_c            15.0000
_cell_angle_alpha         90.0000
_cell_angle_beta          90.0000
_cell_angle_gamma         90.0000

_symmetry_space_group_name_H-M     P1  

loop_
_atom_site_type_symbol
_atom_site_fract_x
_atom_site_fract_y
_atom_site_fract_z
Li            0.000000      0.000000     -0.033333
H             0.000000      0.000000      0.100000
data_nwchem_pspw

_audit_creation_date   Sun May  4 14:20:07 2025
_audit_creation_method    generated by PSPW module of NWChem


_cell_length_a            15.0000
_cell_length_b            15.0000
_cell_length_c            15.0000
_cell_angle_alpha         90.0000
_cell_angle_beta          90.0000
_cell_angle_gamma         90.0000

_symmetry_space_group_name_H-M     P1  

loop_
_atom_site_type_symbol
_atom_site_fract_x
_atom_site_fract_y
_atom_site_fract_z
Li            0.000000      0.000000     -0.041667
H             0.000000      0.000000      0.125000
data_nwchem_pspw

_audit_creation_date   Sun May  4 14:33:14 2025
_audit_creation_method    generated by PSPW module of NWChem


_cell_length_a            15.0000
_cell_length_b            15.0000
_cell_length_c            15.0000
_cell_angle_alpha         90.0000
_cell_angle_beta          90.0000
_cell_angle_gamma         90.0000

_symmetry_space_group_name_H-M     P1  

loop_
_atom_site_type_symbol
_atom_site_fract_x
_atom_site_fract_y
_atom_site_fract_z
Li            0.000000      0.000000     -0.050000
H             0.000000      0.000000      0.150000
data_nwchem_pspw

_audit_creation_date   Sun May  4 14:46:47 2025
_audit_creation_method    generated by PSPW module of NWChem


_cell_length_a            15.0000
_cell_length_b            15.0000
_cell_length_c            15.0000
_cell_angle_alpha         90.0000
_cell_angle_beta          90.0000
_cell_angle_gamma         90.0000

_symmetry_space_group_name_H-M     P1  

loop_
_atom_site_type_symbol
_atom_site_fract_x
_atom_site_fract_y
_atom_site_fract_z
Li            0.000000      0.000000     -0.058333
H             0.000000      0.000000      0.175000
data_nwchem_pspw

_audit_creation_date   Sun May  4 15:04:42 2025
_audit_creation_method    generated by PSPW module of NWChem


_cell_length_a            15.0000
_cell_length_b            15.0000
_cell_length_c            15.0000
_cell_angle_alpha         90.0000
_cell_angle_beta          90.0000
_cell_angle_gamma         90.0000

_symmetry_space_group_name_H-M     P1  

loop_
_atom_site_type_symbol
_atom_site_fract_x
_atom_site_fract_y
_atom_site_fract_z
Li            0.000000      0.000000     -0.066667
H             0.000000      0.000000      0.200000
data_nwchem_pspw

_audit_creation_date   Sun May  4 15:22:40 2025
_audit_creation_method    generated by PSPW module of NWChem


_cell_length_a            15.0000
_cell_length_b            15.0000
_cell_length_c            15.0000
_cell_angle_alpha         90.0000
_cell_angle_beta          90.0000
_cell_angle_gamma         90.0000

_symmetry_space_group_name_H-M     P1  

loop_
_atom_site_type_symbol
_atom_site_fract_x
_atom_site_fract_y
_atom_site_fract_z
Li            0.000000      0.000000     -0.075000
H             0.000000      0.000000      0.225000
data_nwchem_pspw

_audit_creation_date   Sun May  4 15:41:16 2025
_audit_creation_method    generated by PSPW module of NWChem


_cell_length_a            15.0000
_cell_length_b            15.0000
_cell_length_c            15.0000
_cell_angle_alpha         90.0000
_cell_angle_beta          90.0000
_cell_angle_gamma         90.0000

_symmetry_space_group_name_H-M     P1  

loop_
_atom_site_type_symbol
_atom_site_fract_x
_atom_site_fract_y
_atom_site_fract_z
Li            0.000000      0.000000     -0.083333
H             0.000000      0.000000      0.250000
data_nwchem_pspw

_audit_creation_date   Sun May  4 16:04:21 2025
_audit_creation_method    generated by PSPW module of NWChem


_cell_length_a            15.0000
_cell_length_b            15.0000
_cell_length_c            15.0000
_cell_angle_alpha         90.0000
_cell_angle_beta          90.0000
_cell_angle_gamma         90.0000

_symmetry_space_group_name_H-M     P1  

loop_
_atom_site_type_symbol
_atom_site_fract_x
_atom_site_fract_y
_atom_site_fract_z
Li            0.000000      0.000000     -0.100000
H             0.000000      0.000000      0.300000
data_nwchem_pspw

_audit_creation_date   Sun May  4 16:26:39 2025
_audit_creation_method    generated by PSPW module of NWChem


_cell_length_a            15.0000
_cell_length_b            15.0000
_cell_length_c            15.0000
_cell_angle_alpha         90.0000
_cell_angle_beta          90.0000
_cell_angle_gamma         90.0000

_symmetry_space_group_name_H-M     P1  

loop_
_atom_site_type_symbol
_atom_site_fract_x
_atom_site_fract_y
_atom_site_fract_z
Li            0.000000      0.000000     -0.116667
H             0.000000      0.000000      0.350000
data_nwchem_pspw

_audit_creation_date   Sun May  4 17:19:29 2025
_audit_creation_method    generated by PSPW module of NWChem


_cell_length_a            15.0000
_cell_length_b            15.0000
_cell_length_c            15.0000
_cell_angle_alpha         90.0000
_cell_angle_beta          90.0000
_cell_angle_gamma         90.0000

_symmetry_space_group_name_H-M     P1  

loop_
_atom_site_type_symbol
_atom_site_fract_x
_atom_site_fract_y
_atom_site_fract_z
Li            0.000000      0.000000     -0.021667
H             0.000000      0.000000      0.065000
data_nwchem_pspw

_audit_creation_date   Sun May  4 17:45:07 2025
_audit_creation_method    generated by PSPW module of NWChem


_cell_length_a            15.0000
_cell_length_b            15.0000
_cell_length_c            15.0000
_cell_angle_alpha         90.0000
_cell_angle_beta          90.0000
_cell_angle_gamma         90.0000

_symmetry_space_group_name_H-M     P1  

loop_
_atom_site_type_symbol
_atom_site_fract_x
_atom_site_fract_y
_atom_site_fract_z
Li            0.000000      0.000000     -0.023333
H             0.000000      0.000000      0.070000
data_nwchem_pspw

_audit_creation_date   Sun May  4 18:07:04 2025
_audit_creation_method    generated by PSPW module of NWChem


_cell_length_a            15.0000
_cell_length_b            15.0000
_cell_length_c            15.0000
_cell_angle_alpha         90.0000
_cell_angle_beta          90.0000
_cell_angle_gamma         90.0000

_symmetry_space_group_name_H-M     P1  

loop_
_atom_site_type_symbol
_atom_site_fract_x
_atom_site_fract_y
_atom_site_fract_z
Li            0.000000      0.000000     -0.025000
H             0.000000      0.000000      0.075000
data_nwchem_pspw

_audit_creation_date   Sun May  4 18:24:07 2025
_audit_creation_method    generated by PSPW module of NWChem


_cell_length_a            15.0000
_cell_length_b            15.0000
_cell_length_c            15.0000
_cell_angle_alpha         90.0000
_cell_angle_beta          90.0000
_cell_angle_gamma         90.0000

_symmetry_space_group_name_H-M     P1  

loop_
_atom_site_type_symbol
_atom_site_fract_x
_atom_site_fract_y
_atom_site_fract_z
Li            0.000000      0.000000     -0.026667
H             0.000000      0.000000      0.080000
data_nwchem_pspw

_audit_creation_date   Sun May  4 18:41:44 2025
_audit_creation_method    generated by PSPW module of NWChem


_cell_length_a            15.0000
_cell_length_b            15.0000
_cell_length_c            15.0000
_cell_angle_alpha         90.0000
_cell_angle_beta          90.0000
_cell_angle_gamma         90.0000

_symmetry_space_group_name_H-M     P1  

loop_
_atom_site_type_symbol
_atom_site_fract_x
_atom_site_fract_y
_atom_site_fract_z
Li            0.000000      0.000000     -0.028333
H             0.000000      0.000000      0.085000
data_nwchem_pspw

_audit_creation_date   Sun May  4 19:01:42 2025
_audit_creation_method    generated by PSPW module of NWChem


_cell_length_a            15.0000
_cell_length_b            15.0000
_cell_length_c            15.0000
_cell_angle_alpha         90.0000
_cell_angle_beta          90.0000
_cell_angle_gamma         90.0000

_symmetry_space_group_name_H-M     P1  

loop_
_atom_site_type_symbol
_atom_site_fract_x
_atom_site_fract_y
_atom_site_fract_z
Li            0.000000      0.000000     -0.030000
H             0.000000      0.000000      0.090000
data_nwchem_pspw

_audit_creation_date   Sun May  4 19:21:54 2025
_audit_creation_method    generated by PSPW module of NWChem


_cell_length_a            15.0000
_cell_length_b            15.0000
_cell_length_c            15.0000
_cell_angle_alpha         90.0000
_cell_angle_beta          90.0000
_cell_angle_gamma         90.0000

_symmetry_space_group_name_H-M     P1  

loop_
_atom_site_type_symbol
_atom_site_fract_x
_atom_site_fract_y
_atom_site_fract_z
Li            0.000000      0.000000     -0.031667
H             0.000000      0.000000      0.095000
data_nwchem_pspw

_audit_creation_date   Sun May  4 19:41:59 2025
_audit_creation_method    generated by PSPW module of NWChem


_cell_length_a            15.0000
_cell_length_b            15.0000
_cell_length_c            15.0000
_cell_angle_alpha         90.0000
_cell_angle_beta          90.0000
_cell_angle_gamma         90.0000

_symmetry_space_group_name_H-M     P1  

loop_
_atom_site_type_symbol
_atom_site_fract_x
_atom_site_fract_y
_atom_site_fract_z
Li            0.000000      0.000000     -0.033333
H             0.000000      0.000000      0.100000
data_nwchem_pspw

_audit_creation_date   Sun May  4 20:10:48 2025
_audit_creation_method    generated by PSPW module of NWChem


_cell_length_a            15.0000
_cell_length_b            15.0000
_cell_length_c            15.0000
_cell_angle_alpha         90.0000
_cell_angle_beta          90.0000
_cell_angle_gamma         90.0000

_symmetry_space_group_name_H-M     P1  

loop_
_atom_site_type_symbol
_atom_site_fract_x
_atom_site_fract_y
_atom_site_fract_z
Li            0.000000      0.000000     -0.041667
H             0.000000      0.000000      0.125000
data_nwchem_pspw

_audit_creation_date   Sun May  4 20:36:45 2025
_audit_creation_method    generated by PSPW module of NWChem


_cell_length_a            15.0000
_cell_length_b            15.0000
_cell_length_c            15.0000
_cell_angle_alpha         90.0000
_cell_angle_beta          90.0000
_cell_angle_gamma         90.0000

_symmetry_space_group_name_H-M     P1  

loop_
_atom_site_type_symbol
_atom_site_fract_x
_atom_site_fract_y
_atom_site_fract_z
Li            0.000000      0.000000     -0.050000
H             0.000000      0.000000      0.150000
data_nwchem_pspw

_audit_creation_date   Sun May  4 20:56:15 2025
_audit_creation_method    generated by PSPW module of NWChem


_cell_length_a            15.0000
_cell_length_b            15.0000
_cell_length_c            15.0000
_cell_angle_alpha         90.0000
_cell_angle_beta          90.0000
_cell_angle_gamma         90.0000

_symmetry_space_group_name_H-M     P1  

loop_
_atom_site_type_symbol
_atom_site_fract_x
_atom_site_fract_y
_atom_site_fract_z
Li            0.000000      0.000000     -0.058333
H             0.000000      0.000000      0.175000
data_nwchem_pspw

_audit_creation_date   Sun May  4 21:19:49 2025
_audit_creation_method    generated by PSPW module of NWChem


_cell_length_a            15.0000
_cell_length_b            15.0000
_cell_length_c            15.0000
_cell_angle_alpha         90.0000
_cell_angle_beta          90.0000
_cell_angle_gamma         90.0000

_symmetry_space_group_name_H-M     P1  

loop_
_atom_site_type_symbol
_atom_site_fract_x
_atom_site_fract_y
_atom_site_fract_z
Li            0.000000      0.000000     -0.066667
H             0.000000      0.000000      0.200000
data_nwchem_pspw

_audit_creation_date   Sun May  4 21:47:23 2025
_audit_creation_method    generated by PSPW module of NWChem


_cell_length_a            15.0000
_cell_length_b            15.0000
_cell_length_c            15.0000
_cell_angle_alpha         90.0000
_cell_angle_beta          90.0000
_cell_angle_gamma         90.0000

_symmetry_space_group_name_H-M     P1  

loop_
_atom_site_type_symbol
_atom_site_fract_x
_atom_site_fract_y
_atom_site_fract_z
Li            0.000000      0.000000     -0.075000
H             0.000000      0.000000      0.225000
data_nwchem_pspw

_audit_creation_date   Sun May  4 22:15:10 2025
_audit_creation_method    generated by PSPW module of NWChem


_cell_length_a            15.0000
_cell_length_b            15.0000
_cell_length_c            15.0000
_cell_angle_alpha         90.0000
_cell_angle_beta          90.0000
_cell_angle_gamma         90.0000

_symmetry_space_group_name_H-M     P1  

loop_
_atom_site_type_symbol
_atom_site_fract_x
_atom_site_fract_y
_atom_site_fract_z
Li            0.000000      0.000000     -0.083333
H             0.000000      0.000000      0.250000
data_nwchem_pspw

_audit_creation_date   Sun May  4 22:40:16 2025
_audit_creation_method    generated by PSPW module of NWChem


_cell_length_a            15.0000
_cell_length_b            15.0000
_cell_length_c            15.0000
_cell_angle_alpha         90.0000
_cell_angle_beta          90.0000
_cell_angle_gamma         90.0000

_symmetry_space_group_name_H-M     P1  

loop_
_atom_site_type_symbol
_atom_site_fract_x
_atom_site_fract_y
_atom_site_fract_z
Li            0.000000      0.000000     -0.100000
H             0.000000      0.000000      0.300000
data_nwchem_pspw

_audit_creation_date   Sun May  4 23:07:46 2025
_audit_creation_method    generated by PSPW module of NWChem


_cell_length_a            15.0000
_cell_length_b            15.0000
_cell_length_c            15.0000
_cell_angle_alpha         90.0000
_cell_angle_beta          90.0000
_cell_angle_gamma         90.0000

_symmetry_space_group_name_H-M     P1  

loop_
_atom_site_type_symbol
_atom_site_fract_x
_atom_site_fract_y
_atom_site_fract_z
Li            0.000000      0.000000     -0.116667
H             0.000000      0.000000      0.350000
data_nwchem_pspw

_audit_creation_date   Mon May  5 00:43:13 2025
_audit_creation_method    generated by PSPW module of NWChem


_cell_length_a            15.0000
_cell_length_b            15.0000
_cell_length_c            15.0000
_cell_angle_alpha         90.0000
_cell_angle_beta          90.0000
_cell_angle_gamma         90.0000

_symmetry_space_group_name_H-M     P1  

loop_
_atom_site_type_symbol
_atom_site_fract_x
_atom_site_fract_y
_atom_site_fract_z
Li            0.000000      0.000000     -0.021667
H             0.000000      0.000000      0.065000
data_nwchem_pspw

_audit_creation_date   Mon May  5 01:03:08 2025
_audit_creation_method    generated by PSPW module of NWChem


_cell_length_a            15.0000
_cell_length_b            15.0000
_cell_length_c            15.0000
_cell_angle_alpha         90.0000
_cell_angle_beta          90.0000
_cell_angle_gamma         90.0000

_symmetry_space_group_name_H-M     P1  

loop_
_atom_site_type_symbol
_atom_site_fract_x
_atom_site_fract_y
_atom_site_fract_z
Li            0.000000      0.000000     -0.023333
H             0.000000      0.000000      0.070000
data_nwchem_pspw

_audit_creation_date   Mon May  5 01:22:36 2025
_audit_creation_method    generated by PSPW module of NWChem


_cell_length_a            15.0000
_cell_length_b            15.0000
_cell_length_c            15.0000
_cell_angle_alpha         90.0000
_cell_angle_beta          90.0000
_cell_angle_gamma         90.0000

_symmetry_space_group_name_H-M     P1  

loop_
_atom_site_type_symbol
_atom_site_fract_x
_atom_site_fract_y
_atom_site_fract_z
Li            0.000000      0.000000     -0.025000
H             0.000000      0.000000      0.075000
data_nwchem_pspw

_audit_creation_date   Mon May  5 01:48:53 2025
_audit_creation_method    generated by PSPW module of NWChem


_cell_length_a            15.0000
_cell_length_b            15.0000
_cell_length_c            15.0000
_cell_angle_alpha         90.0000
_cell_angle_beta          90.0000
_cell_angle_gamma         90.0000

_symmetry_space_group_name_H-M     P1  

loop_
_atom_site_type_symbol
_atom_site_fract_x
_atom_site_fract_y
_atom_site_fract_z
Li            0.000000      0.000000     -0.026667
H             0.000000      0.000000      0.080000
data_nwchem_pspw

_audit_creation_date   Mon May  5 02:08:10 2025
_audit_creation_method    generated by PSPW module of NWChem


_cell_length_a            15.0000
_cell_length_b            15.0000
_cell_length_c            15.0000
_cell_angle_alpha         90.0000
_cell_angle_beta          90.0000
_cell_angle_gamma         90.0000

_symmetry_space_group_name_H-M     P1  

loop_
_atom_site_type_symbol
_atom_site_fract_x
_atom_site_fract_y
_atom_site_fract_z
Li            0.000000      0.000000     -0.028333
H             0.000000      0.000000      0.085000
data_nwchem_pspw

_audit_creation_date   Mon May  5 02:27:28 2025
_audit_creation_method    generated by PSPW module of NWChem


_cell_length_a            15.0000
_cell_length_b            15.0000
_cell_length_c            15.0000
_cell_angle_alpha         90.0000
_cell_angle_beta          90.0000
_cell_angle_gamma         90.0000

_symmetry_space_group_name_H-M     P1  

loop_
_atom_site_type_symbol
_atom_site_fract_x
_atom_site_fract_y
_atom_site_fract_z
Li            0.000000      0.000000     -0.030000
H             0.000000      0.000000      0.090000
data_nwchem_pspw

_audit_creation_date   Mon May  5 02:46:54 2025
_audit_creation_method    generated by PSPW module of NWChem


_cell_length_a            15.0000
_cell_length_b            15.0000
_cell_length_c            15.0000
_cell_angle_alpha         90.0000
_cell_angle_beta          90.0000
_cell_angle_gamma         90.0000

_symmetry_space_group_name_H-M     P1  

loop_
_atom_site_type_symbol
_atom_site_fract_x
_atom_site_fract_y
_atom_site_fract_z
Li            0.000000      0.000000     -0.031667
H             0.000000      0.000000      0.095000
data_nwchem_pspw

_audit_creation_date   Mon May  5 03:06:32 2025
_audit_creation_method    generated by PSPW module of NWChem


_cell_length_a            15.0000
_cell_length_b            15.0000
_cell_length_c            15.0000
_cell_angle_alpha         90.0000
_cell_angle_beta          90.0000
_cell_angle_gamma         90.0000

_symmetry_space_group_name_H-M     P1  

loop_
_atom_site_type_symbol
_atom_site_fract_x
_atom_site_fract_y
_atom_site_fract_z
Li            0.000000      0.000000     -0.033333
H             0.000000      0.000000      0.100000
data_nwchem_pspw

_audit_creation_date   Mon May  5 03:39:27 2025
_audit_creation_method    generated by PSPW module of NWChem


_cell_length_a            15.0000
_cell_length_b            15.0000
_cell_length_c            15.0000
_cell_angle_alpha         90.0000
_cell_angle_beta          90.0000
_cell_angle_gamma         90.0000

_symmetry_space_group_name_H-M     P1  

loop_
_atom_site_type_symbol
_atom_site_fract_x
_atom_site_fract_y
_atom_site_fract_z
Li            0.000000      0.000000     -0.041667
H             0.000000      0.000000      0.125000
data_nwchem_pspw

_audit_creation_date   Mon May  5 04:11:54 2025
_audit_creation_method    generated by PSPW module of NWChem


_cell_length_a            15.0000
_cell_length_b            15.0000
_cell_length_c            15.0000
_cell_angle_alpha         90.0000
_cell_angle_beta          90.0000
_cell_angle_gamma         90.0000

_symmetry_space_group_name_H-M     P1  

loop_
_atom_site_type_symbol
_atom_site_fract_x
_atom_site_fract_y
_atom_site_fract_z
Li            0.000000      0.000000     -0.050000
H             0.000000      0.000000      0.150000
data_nwchem_pspw

_audit_creation_date   Mon May  5 04:44:42 2025
_audit_creation_method    generated by PSPW module of NWChem


_cell_length_a            15.0000
_cell_length_b            15.0000
_cell_length_c            15.0000
_cell_angle_alpha         90.0000
_cell_angle_beta          90.0000
_cell_angle_gamma         90.0000

_symmetry_space_group_name_H-M     P1  

loop_
_atom_site_type_symbol
_atom_site_fract_x
_atom_site_fract_y
_atom_site_fract_z
Li            0.000000      0.000000     -0.058333
H             0.000000      0.000000      0.175000
data_nwchem_pspw

_audit_creation_date   Mon May  5 05:21:24 2025
_audit_creation_method    generated by PSPW module of NWChem


_cell_length_a            15.0000
_cell_length_b            15.0000
_cell_length_c            15.0000
_cell_angle_alpha         90.0000
_cell_angle_beta          90.0000
_cell_angle_gamma         90.0000

_symmetry_space_group_name_H-M     P1  

loop_
_atom_site_type_symbol
_atom_site_fract_x
_atom_site_fract_y
_atom_site_fract_z
Li            0.000000      0.000000     -0.066667
H             0.000000      0.000000      0.200000
data_nwchem_pspw

_audit_creation_date   Mon May  5 05:58:31 2025
_audit_creation_method    generated by PSPW module of NWChem


_cell_length_a            15.0000
_cell_length_b            15.0000
_cell_length_c            15.0000
_cell_angle_alpha         90.0000
_cell_angle_beta          90.0000
_cell_angle_gamma         90.0000

_symmetry_space_group_name_H-M     P1  

loop_
_atom_site_type_symbol
_atom_site_fract_x
_atom_site_fract_y
_atom_site_fract_z
Li            0.000000      0.000000     -0.075000
H             0.000000      0.000000      0.225000
data_nwchem_pspw

_audit_creation_date   Mon May  5 06:39:38 2025
_audit_creation_method    generated by PSPW module of NWChem


_cell_length_a            15.0000
_cell_length_b            15.0000
_cell_length_c            15.0000
_cell_angle_alpha         90.0000
_cell_angle_beta          90.0000
_cell_angle_gamma         90.0000

_symmetry_space_group_name_H-M     P1  

loop_
_atom_site_type_symbol
_atom_site_fract_x
_atom_site_fract_y
_atom_site_fract_z
Li            0.000000      0.000000     -0.083333
H             0.000000      0.000000      0.250000
data_nwchem_pspw

_audit_creation_date   Mon May  5 07:24:34 2025
_audit_creation_method    generated by PSPW module of NWChem


_cell_length_a            15.0000
_cell_length_b            15.0000
_cell_length_c            15.0000
_cell_angle_alpha         90.0000
_cell_angle_beta          90.0000
_cell_angle_gamma         90.0000

_symmetry_space_group_name_H-M     P1  

loop_
_atom_site_type_symbol
_atom_site_fract_x
_atom_site_fract_y
_atom_site_fract_z
Li            0.000000      0.000000     -0.100000
H             0.000000      0.000000      0.300000
data_nwchem_pspw

_audit_creation_date   Mon May  5 08:11:29 2025
_audit_creation_method    generated by PSPW module of NWChem


_cell_length_a            15.0000
_cell_length_b            15.0000
_cell_length_c            15.0000
_cell_angle_alpha         90.0000
_cell_angle_beta          90.0000
_cell_angle_gamma         90.0000

_symmetry_space_group_name_H-M     P1  

loop_
_atom_site_type_symbol
_atom_site_fract_x
_atom_site_fract_y
_atom_site_fract_z
Li            0.000000      0.000000     -0.116667
H             0.000000      0.000000      0.350000
